
Note: Compatibility modes selected: hs a


Circuit: ** sch_path: /home/ece/cace/sar-adc-using-sky130-pdk/runs/run_2025-09-11_04-56-34/parameters/dnl/run_0/sar_output_dnl.sch

option SCALE: Scale is set to 1e-06 for instance and model parameters
option SCALE: Scale is set to 1e-06 for instance and model parameters
option SCALE: Scale is set to 1e-06 for instance and model parameters
option SCALE: Scale is set to 1e-06 for instance and model parameters
Doing analysis at TEMP = 27.000000 and TNOM = 27.000000

Using KLU as Direct Linear Solver
Operating point simulation skipped by 'uic',
  now using transient initial conditions.
 Reference value :  1.00000e-12
 Reference value :  1.02772e-12
 Reference value :  1.08316e-12
 Reference value :  1.19404e-12
 Reference value :  1.33849e-12
 Reference value :  1.62739e-12
 Reference value :  2.20519e-12
 Reference value :  3.06323e-12
 Reference value :  3.96398e-12
 Reference value :  5.17302e-12
 Reference value :  6.88277e-12
 Reference value :  1.00034e-11
 Reference value :  1.36493e-11
 Reference value :  2.02792e-11
 Reference value :  2.71564e-11
 Reference value :  3.60107e-11
 Reference value :  4.68629e-11
 Reference value :  6.52738e-11
 Reference value :  8.55672e-11
 Reference value :  1.00000e-10
 Reference value :  1.01195e-10
 Reference value :  1.03586e-10
 Reference value :  1.08368e-10
 Reference value :  1.17931e-10
 Reference value :  1.37057e-10
 Reference value :  1.75309e-10
 Reference value :  2.51813e-10
 Reference value :  4.03823e-10
 Reference value :  5.64694e-10
 Reference value :  8.29473e-10
 Reference value :  1.17974e-09
 Reference value :  1.63729e-09
 Reference value :  2.37164e-09
 Reference value :  3.08296e-09
 Reference value :  3.70529e-09
 Reference value :  4.49507e-09
 Reference value :  5.31343e-09
 Reference value :  6.22790e-09
 Reference value :  7.58150e-09
 Reference value :  8.86931e-09
 Reference value :  9.93301e-09
 Reference value :  1.09662e-08
 Reference value :  1.18743e-08
 Reference value :  1.28392e-08
 Reference value :  1.46808e-08
 Reference value :  1.69282e-08
 Reference value :  2.00382e-08
 Reference value :  2.39687e-08
 Reference value :  2.69646e-08
 Reference value :  2.97371e-08
 Reference value :  3.25855e-08
 Reference value :  3.59102e-08
 Reference value :  4.17864e-08
 Reference value :  4.80193e-08
 Reference value :  6.04850e-08
 Reference value :  8.31481e-08
 Reference value :  1.23961e-07
 Reference value :  1.82274e-07
 Reference value :  2.50100e-07
 Reference value :  2.50110e-07
 Reference value :  2.50130e-07
 Reference value :  2.50170e-07
 Reference value :  2.50200e-07
 Reference value :  2.50201e-07
 Reference value :  2.50202e-07
 Reference value :  2.50204e-07
 Reference value :  2.50208e-07
 Reference value :  2.50216e-07
 Reference value :  2.50233e-07
 Reference value :  2.50267e-07
 Reference value :  2.50335e-07
 Reference value :  2.50413e-07
 Reference value :  2.50568e-07
 Reference value :  2.50718e-07
 Reference value :  2.51017e-07
 Reference value :  2.51341e-07
 Reference value :  2.51862e-07
 Reference value :  2.52430e-07
 Reference value :  2.53224e-07
 Reference value :  2.54048e-07
 Reference value :  2.55127e-07
 Reference value :  2.55879e-07
 Reference value :  2.56736e-07
 Reference value :  2.57745e-07
 Reference value :  2.58862e-07
 Reference value :  2.60182e-07
 Reference value :  2.62438e-07
 Reference value :  2.64486e-07
 Reference value :  2.68123e-07
 Reference value :  2.72901e-07
 Reference value :  2.82458e-07
 Reference value :  2.99138e-07
 Reference value :  3.27546e-07
 Reference value :  3.84364e-07
 Reference value :  4.97998e-07
 Reference value :  5.00000e-07
 Reference value :  5.00010e-07
 Reference value :  5.00030e-07
 Reference value :  5.00070e-07
 Reference value :  5.00100e-07
 Reference value :  5.00104e-07
 Reference value :  5.00112e-07
 Reference value :  5.00129e-07
 Reference value :  5.00162e-07
 Reference value :  5.00229e-07
 Reference value :  5.00362e-07
 Reference value :  5.00537e-07
 Reference value :  5.00888e-07
 Reference value :  5.01502e-07
 Reference value :  5.02193e-07
 Reference value :  5.02817e-07
 Reference value :  5.03504e-07
 Reference value :  5.04212e-07
 Reference value :  5.05148e-07
 Reference value :  5.06119e-07
 Reference value :  5.07100e-07
 Reference value :  5.08379e-07
 Reference value :  5.09807e-07
 Reference value :  5.11740e-07
 Reference value :  5.14069e-07
 Reference value :  5.15916e-07
 Reference value :  5.17905e-07
 Reference value :  5.19991e-07
 Reference value :  5.22394e-07
 Reference value :  5.25104e-07
 Reference value :  5.27935e-07
 Reference value :  5.33188e-07
 Reference value :  5.41575e-07
 Reference value :  5.51296e-07
 Reference value :  5.70738e-07
 Reference value :  6.09623e-07
 Reference value :  6.73432e-07
 Reference value :  7.50100e-07
 Reference value :  7.50110e-07
 Reference value :  7.50130e-07
 Reference value :  7.50170e-07
 Reference value :  7.50200e-07
 Reference value :  7.50201e-07
 Reference value :  7.50202e-07
 Reference value :  7.50205e-07
 Reference value :  7.50211e-07
 Reference value :  7.50224e-07
 Reference value :  7.50248e-07
 Reference value :  7.50297e-07
 Reference value :  7.50395e-07
 Reference value :  7.50590e-07
 Reference value :  7.50977e-07
 Reference value :  7.51389e-07
 Reference value :  7.51911e-07
 Reference value :  7.52518e-07
 Reference value :  7.53316e-07
 Reference value :  7.54225e-07
 Reference value :  7.55414e-07
 Reference value :  7.56519e-07
 Reference value :  7.57522e-07
 Reference value :  7.58609e-07
 Reference value :  7.59816e-07
 Reference value :  7.61113e-07
 Reference value :  7.63557e-07
 Reference value :  7.66725e-07
 Reference value :  7.72290e-07
 Reference value :  7.83420e-07
 Reference value :  8.03446e-07
 Reference value :  8.42149e-07
 Reference value :  9.15410e-07
 Reference value :  1.00000e-06
 Reference value :  1.00001e-06
 Reference value :  1.00003e-06
 Reference value :  1.00007e-06
 Reference value :  1.00010e-06
 Reference value :  1.00010e-06
 Reference value :  1.00011e-06
 Reference value :  1.00013e-06
 Reference value :  1.00016e-06
 Reference value :  1.00023e-06
 Reference value :  1.00036e-06
 Reference value :  1.00054e-06
 Reference value :  1.00089e-06
 Reference value :  1.00151e-06
 Reference value :  1.00220e-06
 Reference value :  1.00282e-06
 Reference value :  1.00346e-06
 Reference value :  1.00415e-06
 Reference value :  1.00499e-06
 Reference value :  1.00587e-06
 Reference value :  1.00672e-06
 Reference value :  1.00777e-06
 Reference value :  1.00888e-06
 Reference value :  1.00997e-06
 Reference value :  1.01100e-06
 Reference value :  1.01243e-06
 Reference value :  1.01413e-06
 Reference value :  1.01684e-06
 Reference value :  1.01885e-06
 Reference value :  1.02101e-06
 Reference value :  1.02262e-06
 Reference value :  1.02414e-06
 Reference value :  1.02558e-06
 Reference value :  1.02714e-06
 Reference value :  1.02887e-06
 Reference value :  1.03113e-06
 Reference value :  1.03350e-06
 Reference value :  1.03815e-06
 Reference value :  1.04458e-06
 Reference value :  1.05583e-06
 Reference value :  1.07396e-06
 Reference value :  1.09985e-06
 Reference value :  1.13934e-06
 Reference value :  1.21715e-06
 Reference value :  1.25010e-06
 Reference value :  1.25011e-06
 Reference value :  1.25013e-06
 Reference value :  1.25017e-06
 Reference value :  1.25020e-06
 Reference value :  1.25020e-06
 Reference value :  1.25020e-06
 Reference value :  1.25021e-06
 Reference value :  1.25021e-06
 Reference value :  1.25022e-06
 Reference value :  1.25025e-06
 Reference value :  1.25029e-06
 Reference value :  1.25039e-06
 Reference value :  1.25058e-06
 Reference value :  1.25092e-06
 Reference value :  1.25135e-06
 Reference value :  1.25187e-06
 Reference value :  1.25248e-06
 Reference value :  1.25324e-06
 Reference value :  1.25412e-06
 Reference value :  1.25531e-06
 Reference value :  1.25621e-06
 Reference value :  1.25716e-06
 Reference value :  1.25824e-06
 Reference value :  1.25979e-06
 Reference value :  1.26124e-06
 Reference value :  1.26376e-06
 Reference value :  1.26673e-06
 Reference value :  1.27221e-06
 Reference value :  1.28319e-06
 Reference value :  1.30281e-06
 Reference value :  1.34205e-06
 Reference value :  1.41663e-06
 Reference value :  1.50000e-06
 Reference value :  1.50001e-06
 Reference value :  1.50003e-06
 Reference value :  1.50007e-06
 Reference value :  1.50010e-06
 Reference value :  1.50010e-06
 Reference value :  1.50011e-06
 Reference value :  1.50013e-06
 Reference value :  1.50016e-06
 Reference value :  1.50023e-06
 Reference value :  1.50036e-06
 Reference value :  1.50053e-06
 Reference value :  1.50087e-06
 Reference value :  1.50145e-06
 Reference value :  1.50221e-06
 Reference value :  1.50288e-06
 Reference value :  1.50356e-06
 Reference value :  1.50426e-06
 Reference value :  1.50525e-06
 Reference value :  1.50620e-06
 Reference value :  1.50718e-06
 Reference value :  1.50863e-06
 Reference value :  1.51001e-06
 Reference value :  1.51130e-06
 Reference value :  1.51269e-06
 Reference value :  1.51421e-06
 Reference value :  1.51589e-06
 Reference value :  1.51744e-06
 Reference value :  1.51949e-06
 Reference value :  1.52170e-06
 Reference value :  1.52556e-06
 Reference value :  1.53142e-06
 Reference value :  1.54166e-06
 Reference value :  1.56066e-06
 Reference value :  1.59414e-06
 Reference value :  1.65797e-06
 Reference value :  1.75010e-06
 Reference value :  1.75011e-06
 Reference value :  1.75013e-06
 Reference value :  1.75017e-06
 Reference value :  1.75020e-06
 Reference value :  1.75020e-06
 Reference value :  1.75020e-06
 Reference value :  1.75021e-06
 Reference value :  1.75021e-06
 Reference value :  1.75022e-06
 Reference value :  1.75025e-06
 Reference value :  1.75029e-06
 Reference value :  1.75039e-06
 Reference value :  1.75058e-06
 Reference value :  1.75092e-06
 Reference value :  1.75135e-06
 Reference value :  1.75187e-06
 Reference value :  1.75248e-06
 Reference value :  1.75324e-06
 Reference value :  1.75411e-06
 Reference value :  1.75529e-06
 Reference value :  1.75619e-06
 Reference value :  1.75714e-06
 Reference value :  1.75818e-06
 Reference value :  1.75931e-06
 Reference value :  1.76052e-06
 Reference value :  1.76295e-06
 Reference value :  1.76558e-06
 Reference value :  1.77020e-06
 Reference value :  1.77854e-06
 Reference value :  1.79522e-06
 Reference value :  1.82859e-06
 Reference value :  1.89349e-06
 Reference value :  2.00000e-06
 Reference value :  2.00001e-06
 Reference value :  2.00003e-06
 Reference value :  2.00007e-06
 Reference value :  2.00010e-06
 Reference value :  2.00010e-06
 Reference value :  2.00011e-06
 Reference value :  2.00013e-06
 Reference value :  2.00016e-06
 Reference value :  2.00023e-06
 Reference value :  2.00036e-06
 Reference value :  2.00053e-06
 Reference value :  2.00087e-06
 Reference value :  2.00145e-06
 Reference value :  2.00221e-06
 Reference value :  2.00288e-06
 Reference value :  2.00356e-06
 Reference value :  2.00427e-06
 Reference value :  2.00525e-06
 Reference value :  2.00603e-06
 Reference value :  2.00686e-06
 Reference value :  2.00785e-06
 Reference value :  2.00893e-06
 Reference value :  2.00992e-06
 Reference value :  2.01096e-06
 Reference value :  2.01237e-06
 Reference value :  2.01398e-06
 Reference value :  2.01628e-06
 Reference value :  2.01849e-06
 Reference value :  2.02053e-06
 Reference value :  2.02215e-06
 Reference value :  2.02370e-06
 Reference value :  2.02530e-06
 Reference value :  2.02697e-06
 Reference value :  2.02890e-06
 Reference value :  2.03082e-06
 Reference value :  2.03342e-06
 Reference value :  2.03795e-06
 Reference value :  2.04535e-06
 Reference value :  2.05946e-06
 Reference value :  2.07376e-06
 Reference value :  2.08893e-06
 Reference value :  2.10522e-06
 Reference value :  2.11645e-06
 Reference value :  2.12698e-06
 Reference value :  2.13684e-06
 Reference value :  2.14617e-06
 Reference value :  2.15245e-06
 Reference value :  2.15971e-06
 Reference value :  2.17312e-06
 Reference value :  2.18618e-06
 Reference value :  2.21064e-06
 Reference value :  2.24232e-06
 Reference value :  2.25010e-06
 Reference value :  2.25011e-06
 Reference value :  2.25013e-06
 Reference value :  2.25017e-06
 Reference value :  2.25020e-06
 Reference value :  2.25020e-06
 Reference value :  2.25020e-06
 Reference value :  2.25021e-06
 Reference value :  2.25021e-06
 Reference value :  2.25022e-06
 Reference value :  2.25025e-06
 Reference value :  2.25030e-06
 Reference value :  2.25039e-06
 Reference value :  2.25059e-06
 Reference value :  2.25094e-06
 Reference value :  2.25136e-06
 Reference value :  2.25188e-06
 Reference value :  2.25249e-06
 Reference value :  2.25325e-06
 Reference value :  2.25413e-06
 Reference value :  2.25527e-06
 Reference value :  2.25622e-06
 Reference value :  2.25719e-06
 Reference value :  2.25830e-06
 Reference value :  2.25985e-06
 Reference value :  2.26148e-06
 Reference value :  2.26387e-06
 Reference value :  2.26706e-06
 Reference value :  2.27253e-06
 Reference value :  2.28347e-06
 Reference value :  2.30282e-06
 Reference value :  2.34048e-06
 Reference value :  2.41143e-06
 Reference value :  2.50000e-06
 Reference value :  2.50001e-06
 Reference value :  2.50003e-06
 Reference value :  2.50007e-06
 Reference value :  2.50010e-06
 Reference value :  2.50010e-06
 Reference value :  2.50011e-06
 Reference value :  2.50013e-06
 Reference value :  2.50016e-06
 Reference value :  2.50023e-06
 Reference value :  2.50036e-06
 Reference value :  2.50053e-06
 Reference value :  2.50087e-06
 Reference value :  2.50145e-06
 Reference value :  2.50221e-06
 Reference value :  2.50284e-06
 Reference value :  2.50350e-06
 Reference value :  2.50419e-06
 Reference value :  2.50515e-06
 Reference value :  2.50611e-06
 Reference value :  2.50707e-06
 Reference value :  2.50855e-06
 Reference value :  2.50991e-06
 Reference value :  2.51128e-06
 Reference value :  2.51284e-06
 Reference value :  2.51460e-06
 Reference value :  2.51628e-06
 Reference value :  2.51820e-06
 Reference value :  2.52041e-06
 Reference value :  2.52426e-06
 Reference value :  2.53028e-06
 Reference value :  2.54136e-06
 Reference value :  2.56285e-06
 Reference value :  2.60151e-06
 Reference value :  2.67883e-06
 Reference value :  2.75010e-06
 Reference value :  2.75011e-06
 Reference value :  2.75013e-06
 Reference value :  2.75017e-06
 Reference value :  2.75020e-06
 Reference value :  2.75020e-06
 Reference value :  2.75020e-06
 Reference value :  2.75021e-06
 Reference value :  2.75021e-06
 Reference value :  2.75022e-06
 Reference value :  2.75025e-06
 Reference value :  2.75030e-06
 Reference value :  2.75039e-06
 Reference value :  2.75059e-06
 Reference value :  2.75094e-06
 Reference value :  2.75136e-06
 Reference value :  2.75188e-06
 Reference value :  2.75249e-06
 Reference value :  2.75325e-06
 Reference value :  2.75413e-06
 Reference value :  2.75531e-06
 Reference value :  2.75623e-06
 Reference value :  2.75720e-06
 Reference value :  2.75823e-06
 Reference value :  2.75934e-06
 Reference value :  2.76056e-06
 Reference value :  2.76184e-06
 Reference value :  2.76324e-06
 Reference value :  2.76536e-06
 Reference value :  2.76769e-06
 Reference value :  2.77128e-06
 Reference value :  2.77695e-06
 Reference value :  2.78829e-06
 Reference value :  2.81096e-06
 Reference value :  2.85626e-06
 Reference value :  2.94687e-06
 Reference value :  3.00000e-06
 Reference value :  3.00001e-06
 Reference value :  3.00003e-06
 Reference value :  3.00007e-06
 Reference value :  3.00010e-06
 Reference value :  3.00010e-06
 Reference value :  3.00011e-06
 Reference value :  3.00013e-06
 Reference value :  3.00016e-06
 Reference value :  3.00023e-06
 Reference value :  3.00036e-06
 Reference value :  3.00053e-06
 Reference value :  3.00087e-06
 Reference value :  3.00144e-06
 Reference value :  3.00221e-06
 Reference value :  3.00288e-06
 Reference value :  3.00356e-06
 Reference value :  3.00427e-06
 Reference value :  3.00513e-06
 Reference value :  3.00590e-06
 Reference value :  3.00673e-06
 Reference value :  3.00780e-06
 Reference value :  3.00879e-06
 Reference value :  3.00972e-06
 Reference value :  3.01075e-06
 Reference value :  3.01209e-06
 Reference value :  3.01365e-06
 Reference value :  3.01522e-06
 Reference value :  3.01693e-06
 Reference value :  3.01855e-06
 Reference value :  3.02025e-06
 Reference value :  3.02150e-06
 Reference value :  3.02268e-06
 Reference value :  3.02410e-06
 Reference value :  3.02558e-06
 Reference value :  3.02696e-06
 Reference value :  3.02869e-06
 Reference value :  3.03085e-06
 Reference value :  3.03321e-06
 Reference value :  3.03763e-06
 Reference value :  3.04205e-06
 Reference value :  3.04650e-06
 Reference value :  3.05180e-06
 Reference value :  3.05513e-06
 Reference value :  3.05824e-06
 Reference value :  3.06043e-06
 Reference value :  3.06304e-06
 Reference value :  3.06670e-06
 Reference value :  3.07136e-06
 Reference value :  3.07828e-06
 Reference value :  3.08801e-06
 Reference value :  3.10341e-06
 Reference value :  3.12632e-06
 Reference value :  3.16202e-06
 Reference value :  3.19147e-06
 Reference value :  3.22342e-06
 Reference value :  3.25010e-06
 Reference value :  3.25011e-06
 Reference value :  3.25013e-06
 Reference value :  3.25017e-06
 Reference value :  3.25020e-06
 Reference value :  3.25020e-06
 Reference value :  3.25020e-06
 Reference value :  3.25021e-06
 Reference value :  3.25021e-06
 Reference value :  3.25022e-06
 Reference value :  3.25025e-06
 Reference value :  3.25029e-06
 Reference value :  3.25039e-06
 Reference value :  3.25058e-06
 Reference value :  3.25092e-06
 Reference value :  3.25134e-06
 Reference value :  3.25187e-06
 Reference value :  3.25248e-06
 Reference value :  3.25323e-06
 Reference value :  3.25411e-06
 Reference value :  3.25530e-06
 Reference value :  3.25619e-06
 Reference value :  3.25713e-06
 Reference value :  3.25821e-06
 Reference value :  3.25976e-06
 Reference value :  3.26118e-06
 Reference value :  3.26374e-06
 Reference value :  3.26664e-06
 Reference value :  3.27209e-06
 Reference value :  3.28298e-06
 Reference value :  3.30219e-06
 Reference value :  3.34062e-06
 Reference value :  3.41360e-06
 Reference value :  3.50000e-06
 Reference value :  3.50001e-06
 Reference value :  3.50003e-06
 Reference value :  3.50007e-06
 Reference value :  3.50010e-06
 Reference value :  3.50010e-06
 Reference value :  3.50011e-06
 Reference value :  3.50013e-06
 Reference value :  3.50016e-06
 Reference value :  3.50023e-06
 Reference value :  3.50036e-06
 Reference value :  3.50053e-06
 Reference value :  3.50087e-06
 Reference value :  3.50145e-06
 Reference value :  3.50221e-06
 Reference value :  3.50288e-06
 Reference value :  3.50356e-06
 Reference value :  3.50426e-06
 Reference value :  3.50524e-06
 Reference value :  3.50619e-06
 Reference value :  3.50717e-06
 Reference value :  3.50861e-06
 Reference value :  3.51000e-06
 Reference value :  3.51128e-06
 Reference value :  3.51264e-06
 Reference value :  3.51417e-06
 Reference value :  3.51583e-06
 Reference value :  3.51764e-06
 Reference value :  3.51966e-06
 Reference value :  3.52354e-06
 Reference value :  3.52953e-06
 Reference value :  3.54151e-06
 Reference value :  3.56414e-06
 Reference value :  3.60477e-06
 Reference value :  3.68499e-06
 Reference value :  3.75010e-06
 Reference value :  3.75011e-06
 Reference value :  3.75013e-06
 Reference value :  3.75017e-06
 Reference value :  3.75020e-06
 Reference value :  3.75020e-06
 Reference value :  3.75020e-06
 Reference value :  3.75021e-06
 Reference value :  3.75021e-06
 Reference value :  3.75022e-06
 Reference value :  3.75025e-06
 Reference value :  3.75030e-06
 Reference value :  3.75039e-06
 Reference value :  3.75059e-06
 Reference value :  3.75094e-06
 Reference value :  3.75136e-06
 Reference value :  3.75188e-06
 Reference value :  3.75249e-06
 Reference value :  3.75325e-06
 Reference value :  3.75413e-06
 Reference value :  3.75531e-06
 Reference value :  3.75623e-06
 Reference value :  3.75719e-06
 Reference value :  3.75822e-06
 Reference value :  3.75933e-06
 Reference value :  3.76056e-06
 Reference value :  3.76300e-06
 Reference value :  3.76566e-06
 Reference value :  3.77032e-06
 Reference value :  3.77880e-06
 Reference value :  3.79575e-06
 Reference value :  3.82933e-06
 Reference value :  3.89435e-06
 Reference value :  4.00000e-06
 Reference value :  4.00001e-06
 Reference value :  4.00003e-06
 Reference value :  4.00007e-06
 Reference value :  4.00010e-06
 Reference value :  4.00010e-06
 Reference value :  4.00011e-06
 Reference value :  4.00013e-06
 Reference value :  4.00016e-06
 Reference value :  4.00023e-06
 Reference value :  4.00036e-06
 Reference value :  4.00053e-06
 Reference value :  4.00087e-06
 Reference value :  4.00145e-06
 Reference value :  4.00221e-06
 Reference value :  4.00288e-06
 Reference value :  4.00356e-06
 Reference value :  4.00427e-06
 Reference value :  4.00525e-06
 Reference value :  4.00603e-06
 Reference value :  4.00685e-06
 Reference value :  4.00785e-06
 Reference value :  4.00893e-06
 Reference value :  4.00993e-06
 Reference value :  4.01098e-06
 Reference value :  4.01233e-06
 Reference value :  4.01406e-06
 Reference value :  4.01669e-06
 Reference value :  4.01868e-06
 Reference value :  4.02081e-06
 Reference value :  4.02232e-06
 Reference value :  4.02380e-06
 Reference value :  4.02519e-06
 Reference value :  4.02677e-06
 Reference value :  4.02842e-06
 Reference value :  4.03064e-06
 Reference value :  4.03289e-06
 Reference value :  4.03740e-06
 Reference value :  4.04396e-06
 Reference value :  4.05020e-06
 Reference value :  4.05904e-06
 Reference value :  4.06826e-06
 Reference value :  4.07521e-06
 Reference value :  4.08276e-06
 Reference value :  4.09066e-06
 Reference value :  4.09703e-06
 Reference value :  4.10517e-06
 Reference value :  4.11166e-06
 Reference value :  4.11975e-06
 Reference value :  4.13289e-06
 Reference value :  4.15689e-06
 Reference value :  4.19244e-06
 Reference value :  4.23984e-06
 Reference value :  4.25010e-06
 Reference value :  4.25011e-06
 Reference value :  4.25013e-06
 Reference value :  4.25017e-06
 Reference value :  4.25020e-06
 Reference value :  4.25020e-06
 Reference value :  4.25020e-06
 Reference value :  4.25021e-06
 Reference value :  4.25021e-06
 Reference value :  4.25022e-06
 Reference value :  4.25025e-06
 Reference value :  4.25030e-06
 Reference value :  4.25039e-06
 Reference value :  4.25059e-06
 Reference value :  4.25093e-06
 Reference value :  4.25136e-06
 Reference value :  4.25188e-06
 Reference value :  4.25249e-06
 Reference value :  4.25325e-06
 Reference value :  4.25413e-06
 Reference value :  4.25526e-06
 Reference value :  4.25621e-06
 Reference value :  4.25719e-06
 Reference value :  4.25828e-06
 Reference value :  4.25987e-06
 Reference value :  4.26146e-06
 Reference value :  4.26392e-06
 Reference value :  4.26704e-06
 Reference value :  4.27250e-06
 Reference value :  4.28344e-06
 Reference value :  4.30246e-06
 Reference value :  4.32141e-06
 Reference value :  4.33503e-06
 Reference value :  4.34608e-06
 Reference value :  4.35743e-06
 Reference value :  4.36841e-06
 Reference value :  4.38722e-06
 Reference value :  4.40741e-06
 Reference value :  4.43852e-06
 Reference value :  4.48158e-06
 Reference value :  4.50000e-06
 Reference value :  4.50001e-06
 Reference value :  4.50003e-06
 Reference value :  4.50007e-06
 Reference value :  4.50010e-06
 Reference value :  4.50010e-06
 Reference value :  4.50011e-06
 Reference value :  4.50013e-06
 Reference value :  4.50016e-06
 Reference value :  4.50023e-06
 Reference value :  4.50036e-06
 Reference value :  4.50053e-06
 Reference value :  4.50087e-06
 Reference value :  4.50144e-06
 Reference value :  4.50221e-06
 Reference value :  4.50288e-06
 Reference value :  4.50356e-06
 Reference value :  4.50426e-06
 Reference value :  4.50525e-06
 Reference value :  4.50620e-06
 Reference value :  4.50717e-06
 Reference value :  4.50863e-06
 Reference value :  4.51001e-06
 Reference value :  4.51126e-06
 Reference value :  4.51253e-06
 Reference value :  4.51381e-06
 Reference value :  4.51532e-06
 Reference value :  4.51694e-06
 Reference value :  4.51866e-06
 Reference value :  4.52210e-06
 Reference value :  4.52899e-06
 Reference value :  4.54063e-06
 Reference value :  4.56392e-06
 Reference value :  4.60763e-06
 Reference value :  4.68937e-06
 Reference value :  4.75010e-06
 Reference value :  4.75011e-06
 Reference value :  4.75013e-06
 Reference value :  4.75017e-06
 Reference value :  4.75020e-06
 Reference value :  4.75020e-06
 Reference value :  4.75020e-06
 Reference value :  4.75021e-06
 Reference value :  4.75021e-06
 Reference value :  4.75022e-06
 Reference value :  4.75025e-06
 Reference value :  4.75030e-06
 Reference value :  4.75039e-06
 Reference value :  4.75059e-06
 Reference value :  4.75093e-06
 Reference value :  4.75136e-06
 Reference value :  4.75188e-06
 Reference value :  4.75249e-06
 Reference value :  4.75325e-06
 Reference value :  4.75413e-06
 Reference value :  4.75530e-06
 Reference value :  4.75622e-06
 Reference value :  4.75719e-06
 Reference value :  4.75821e-06
 Reference value :  4.75932e-06
 Reference value :  4.76055e-06
 Reference value :  4.76299e-06
 Reference value :  4.76565e-06
 Reference value :  4.77030e-06
 Reference value :  4.77876e-06
 Reference value :  4.79569e-06
 Reference value :  4.82906e-06
 Reference value :  4.89441e-06
 Reference value :  5.00000e-06
 Reference value :  5.00001e-06
 Reference value :  5.00003e-06
 Reference value :  5.00007e-06
 Reference value :  5.00010e-06
 Reference value :  5.00010e-06
 Reference value :  5.00011e-06
 Reference value :  5.00013e-06
 Reference value :  5.00016e-06
 Reference value :  5.00023e-06
 Reference value :  5.00036e-06
 Reference value :  5.00053e-06
 Reference value :  5.00087e-06
 Reference value :  5.00145e-06
 Reference value :  5.00221e-06
 Reference value :  5.00288e-06
 Reference value :  5.00356e-06
 Reference value :  5.00427e-06
 Reference value :  5.00525e-06
 Reference value :  5.00603e-06
 Reference value :  5.00686e-06
 Reference value :  5.00785e-06
 Reference value :  5.00873e-06
 Reference value :  5.00970e-06
 Reference value :  5.01067e-06
 Reference value :  5.01191e-06
 Reference value :  5.01363e-06
 Reference value :  5.01583e-06
 Reference value :  5.01810e-06
 Reference value :  5.02039e-06
 Reference value :  5.02206e-06
 Reference value :  5.02362e-06
 Reference value :  5.02524e-06
 Reference value :  5.02694e-06
 Reference value :  5.02898e-06
 Reference value :  5.03086e-06
 Reference value :  5.03363e-06
 Reference value :  5.03791e-06
 Reference value :  5.04396e-06
 Reference value :  5.05035e-06
 Reference value :  5.05520e-06
 Reference value :  5.06035e-06
 Reference value :  5.06561e-06
 Reference value :  5.07131e-06
 Reference value :  5.07816e-06
 Reference value :  5.08406e-06
 Reference value :  5.09114e-06
 Reference value :  5.10317e-06
 Reference value :  5.11992e-06
 Reference value :  5.14597e-06
 Reference value :  5.18667e-06
 Reference value :  5.24817e-06
 Reference value :  5.25010e-06
 Reference value :  5.25011e-06
 Reference value :  5.25013e-06
 Reference value :  5.25017e-06
 Reference value :  5.25020e-06
 Reference value :  5.25020e-06
 Reference value :  5.25020e-06
 Reference value :  5.25021e-06
 Reference value :  5.25021e-06
 Reference value :  5.25022e-06
 Reference value :  5.25025e-06
 Reference value :  5.25029e-06
 Reference value :  5.25039e-06
 Reference value :  5.25058e-06
 Reference value :  5.25092e-06
 Reference value :  5.25135e-06
 Reference value :  5.25187e-06
 Reference value :  5.25248e-06
 Reference value :  5.25324e-06
 Reference value :  5.25411e-06
 Reference value :  5.25525e-06
 Reference value :  5.25617e-06
 Reference value :  5.25713e-06
 Reference value :  5.25821e-06
 Reference value :  5.25978e-06
 Reference value :  5.26132e-06
 Reference value :  5.26379e-06
 Reference value :  5.26679e-06
 Reference value :  5.27216e-06
 Reference value :  5.28290e-06
 Reference value :  5.30176e-06
 Reference value :  5.33923e-06
 Reference value :  5.41060e-06
 Reference value :  5.50000e-06
 Reference value :  5.50001e-06
 Reference value :  5.50003e-06
 Reference value :  5.50007e-06
 Reference value :  5.50010e-06
 Reference value :  5.50010e-06
 Reference value :  5.50011e-06
 Reference value :  5.50013e-06
 Reference value :  5.50016e-06
 Reference value :  5.50023e-06
 Reference value :  5.50036e-06
 Reference value :  5.50053e-06
 Reference value :  5.50087e-06
 Reference value :  5.50145e-06
 Reference value :  5.50221e-06
 Reference value :  5.50284e-06
 Reference value :  5.50350e-06
 Reference value :  5.50419e-06
 Reference value :  5.50515e-06
 Reference value :  5.50612e-06
 Reference value :  5.50706e-06
 Reference value :  5.50855e-06
 Reference value :  5.50991e-06
 Reference value :  5.51119e-06
 Reference value :  5.51257e-06
 Reference value :  5.51385e-06
 Reference value :  5.51534e-06
 Reference value :  5.51686e-06
 Reference value :  5.51856e-06
 Reference value :  5.52197e-06
 Reference value :  5.52879e-06
 Reference value :  5.54035e-06
 Reference value :  5.56347e-06
 Reference value :  5.60697e-06
 Reference value :  5.69395e-06
 Reference value :  5.75010e-06
 Reference value :  5.75011e-06
 Reference value :  5.75013e-06
 Reference value :  5.75017e-06
 Reference value :  5.75020e-06
 Reference value :  5.75020e-06
 Reference value :  5.75020e-06
 Reference value :  5.75021e-06
 Reference value :  5.75021e-06
 Reference value :  5.75022e-06
 Reference value :  5.75025e-06
 Reference value :  5.75030e-06
 Reference value :  5.75039e-06
 Reference value :  5.75059e-06
 Reference value :  5.75094e-06
 Reference value :  5.75136e-06
 Reference value :  5.75188e-06
 Reference value :  5.75249e-06
 Reference value :  5.75326e-06
 Reference value :  5.75413e-06
 Reference value :  5.75531e-06
 Reference value :  5.75623e-06
 Reference value :  5.75720e-06
 Reference value :  5.75823e-06
 Reference value :  5.75934e-06
 Reference value :  5.76056e-06
 Reference value :  5.76184e-06
 Reference value :  5.76324e-06
 Reference value :  5.76536e-06
 Reference value :  5.76769e-06
 Reference value :  5.77129e-06
 Reference value :  5.77698e-06
 Reference value :  5.78836e-06
 Reference value :  5.81112e-06
 Reference value :  5.85616e-06
 Reference value :  5.94624e-06
 Reference value :  6.00000e-06
 Reference value :  6.00001e-06
 Reference value :  6.00003e-06
 Reference value :  6.00007e-06
 Reference value :  6.00010e-06
 Reference value :  6.00010e-06
 Reference value :  6.00011e-06
 Reference value :  6.00013e-06
 Reference value :  6.00016e-06
 Reference value :  6.00023e-06
 Reference value :  6.00036e-06
 Reference value :  6.00053e-06
 Reference value :  6.00087e-06
 Reference value :  6.00144e-06
 Reference value :  6.00221e-06
 Reference value :  6.00288e-06
 Reference value :  6.00356e-06
 Reference value :  6.00427e-06
 Reference value :  6.00514e-06
 Reference value :  6.00590e-06
 Reference value :  6.00673e-06
 Reference value :  6.00781e-06
 Reference value :  6.00879e-06
 Reference value :  6.00970e-06
 Reference value :  6.01079e-06
 Reference value :  6.01200e-06
 Reference value :  6.01389e-06
 Reference value :  6.01525e-06
 Reference value :  6.01673e-06
 Reference value :  6.01822e-06
 Reference value :  6.01980e-06
 Reference value :  6.02117e-06
 Reference value :  6.02233e-06
 Reference value :  6.02356e-06
 Reference value :  6.02481e-06
 Reference value :  6.02611e-06
 Reference value :  6.02781e-06
 Reference value :  6.02941e-06
 Reference value :  6.03214e-06
 Reference value :  6.03466e-06
 Reference value :  6.03809e-06
 Reference value :  6.04134e-06
 Reference value :  6.04390e-06
 Reference value :  6.04642e-06
 Reference value :  6.04913e-06
 Reference value :  6.05207e-06
 Reference value :  6.05551e-06
 Reference value :  6.06053e-06
 Reference value :  6.06947e-06
 Reference value :  6.08221e-06
 Reference value :  6.10280e-06
 Reference value :  6.13673e-06
 Reference value :  6.20137e-06
 Reference value :  6.25010e-06
 Reference value :  6.25011e-06
 Reference value :  6.25013e-06
 Reference value :  6.25017e-06
 Reference value :  6.25020e-06
 Reference value :  6.25020e-06
 Reference value :  6.25020e-06
 Reference value :  6.25021e-06
 Reference value :  6.25021e-06
 Reference value :  6.25022e-06
 Reference value :  6.25025e-06
 Reference value :  6.25030e-06
 Reference value :  6.25039e-06
 Reference value :  6.25059e-06
 Reference value :  6.25094e-06
 Reference value :  6.25136e-06
 Reference value :  6.25188e-06
 Reference value :  6.25249e-06
 Reference value :  6.25326e-06
 Reference value :  6.25413e-06
 Reference value :  6.25532e-06
 Reference value :  6.25622e-06
 Reference value :  6.25718e-06
 Reference value :  6.25824e-06
 Reference value :  6.25981e-06
 Reference value :  6.26127e-06
 Reference value :  6.26378e-06
 Reference value :  6.26676e-06
 Reference value :  6.27228e-06
 Reference value :  6.28331e-06
 Reference value :  6.30225e-06
 Reference value :  6.34013e-06
 Reference value :  6.37958e-06
 Reference value :  6.43171e-06
 Reference value :  6.46406e-06
 Reference value :  6.49705e-06
 Reference value :  6.50000e-06
 Reference value :  6.50001e-06
 Reference value :  6.50003e-06
 Reference value :  6.50007e-06
 Reference value :  6.50010e-06
 Reference value :  6.50010e-06
 Reference value :  6.50011e-06
 Reference value :  6.50013e-06
 Reference value :  6.50016e-06
 Reference value :  6.50023e-06
 Reference value :  6.50036e-06
 Reference value :  6.50053e-06
 Reference value :  6.50087e-06
 Reference value :  6.50144e-06
 Reference value :  6.50221e-06
 Reference value :  6.50284e-06
 Reference value :  6.50357e-06
 Reference value :  6.50424e-06
 Reference value :  6.50525e-06
 Reference value :  6.50620e-06
 Reference value :  6.50716e-06
 Reference value :  6.50853e-06
 Reference value :  6.50996e-06
 Reference value :  6.51129e-06
 Reference value :  6.51278e-06
 Reference value :  6.51412e-06
 Reference value :  6.51562e-06
 Reference value :  6.51712e-06
 Reference value :  6.51887e-06
 Reference value :  6.52237e-06
 Reference value :  6.52858e-06
 Reference value :  6.54098e-06
 Reference value :  6.56529e-06
 Reference value :  6.61167e-06
 Reference value :  6.65734e-06
 Reference value :  6.72324e-06
 Reference value :  6.75010e-06
 Reference value :  6.75011e-06
 Reference value :  6.75013e-06
 Reference value :  6.75017e-06
 Reference value :  6.75020e-06
 Reference value :  6.75020e-06
 Reference value :  6.75020e-06
 Reference value :  6.75021e-06
 Reference value :  6.75021e-06
 Reference value :  6.75022e-06
 Reference value :  6.75025e-06
 Reference value :  6.75029e-06
 Reference value :  6.75039e-06
 Reference value :  6.75058e-06
 Reference value :  6.75092e-06
 Reference value :  6.75135e-06
 Reference value :  6.75187e-06
 Reference value :  6.75248e-06
 Reference value :  6.75323e-06
 Reference value :  6.75411e-06
 Reference value :  6.75528e-06
 Reference value :  6.75619e-06
 Reference value :  6.75714e-06
 Reference value :  6.75817e-06
 Reference value :  6.75929e-06
 Reference value :  6.76052e-06
 Reference value :  6.76181e-06
 Reference value :  6.76321e-06
 Reference value :  6.76538e-06
 Reference value :  6.76771e-06
 Reference value :  6.77129e-06
 Reference value :  6.77689e-06
 Reference value :  6.78811e-06
 Reference value :  6.81054e-06
 Reference value :  6.85541e-06
 Reference value :  6.94514e-06
 Reference value :  7.00000e-06
 Reference value :  7.00001e-06
 Reference value :  7.00003e-06
 Reference value :  7.00007e-06
 Reference value :  7.00010e-06
 Reference value :  7.00010e-06
 Reference value :  7.00011e-06
 Reference value :  7.00013e-06
 Reference value :  7.00016e-06
 Reference value :  7.00023e-06
 Reference value :  7.00036e-06
 Reference value :  7.00053e-06
 Reference value :  7.00087e-06
 Reference value :  7.00144e-06
 Reference value :  7.00221e-06
 Reference value :  7.00288e-06
 Reference value :  7.00355e-06
 Reference value :  7.00426e-06
 Reference value :  7.00523e-06
 Reference value :  7.00601e-06
 Reference value :  7.00683e-06
 Reference value :  7.00780e-06
 Reference value :  7.00867e-06
 Reference value :  7.00962e-06
 Reference value :  7.01060e-06
 Reference value :  7.01182e-06
 Reference value :  7.01354e-06
 Reference value :  7.01499e-06
 Reference value :  7.01654e-06
 Reference value :  7.01805e-06
 Reference value :  7.01979e-06
 Reference value :  7.02139e-06
 Reference value :  7.02252e-06
 Reference value :  7.02371e-06
 Reference value :  7.02487e-06
 Reference value :  7.02618e-06
 Reference value :  7.02764e-06
 Reference value :  7.02910e-06
 Reference value :  7.03024e-06
 Reference value :  7.03150e-06
 Reference value :  7.03300e-06
 Reference value :  7.03457e-06
 Reference value :  7.03690e-06
 Reference value :  7.03922e-06
 Reference value :  7.04387e-06
 Reference value :  7.04914e-06
 Reference value :  7.05647e-06
 Reference value :  7.06623e-06
 Reference value :  7.08574e-06
 Reference value :  7.11747e-06
 Reference value :  7.17378e-06
 Reference value :  7.25010e-06
 Reference value :  7.25011e-06
 Reference value :  7.25013e-06
 Reference value :  7.25017e-06
 Reference value :  7.25020e-06
 Reference value :  7.25020e-06
 Reference value :  7.25020e-06
 Reference value :  7.25021e-06
 Reference value :  7.25021e-06
 Reference value :  7.25022e-06
 Reference value :  7.25025e-06
 Reference value :  7.25030e-06
 Reference value :  7.25039e-06
 Reference value :  7.25059e-06
 Reference value :  7.25094e-06
 Reference value :  7.25136e-06
 Reference value :  7.25188e-06
 Reference value :  7.25249e-06
 Reference value :  7.25326e-06
 Reference value :  7.25414e-06
 Reference value :  7.25532e-06
 Reference value :  7.25624e-06
 Reference value :  7.25722e-06
 Reference value :  7.25830e-06
 Reference value :  7.25986e-06
 Reference value :  7.26139e-06
 Reference value :  7.26384e-06
 Reference value :  7.26695e-06
 Reference value :  7.27254e-06
 Reference value :  7.28372e-06
 Reference value :  7.30280e-06
 Reference value :  7.34085e-06
 Reference value :  7.41059e-06
 Reference value :  7.50000e-06
 Reference value :  7.50001e-06
 Reference value :  7.50003e-06
 Reference value :  7.50007e-06
 Reference value :  7.50010e-06
 Reference value :  7.50010e-06
 Reference value :  7.50011e-06
 Reference value :  7.50013e-06
 Reference value :  7.50016e-06
 Reference value :  7.50023e-06
 Reference value :  7.50036e-06
 Reference value :  7.50053e-06
 Reference value :  7.50087e-06
 Reference value :  7.50150e-06
 Reference value :  7.50218e-06
 Reference value :  7.50280e-06
 Reference value :  7.50345e-06
 Reference value :  7.50413e-06
 Reference value :  7.50512e-06
 Reference value :  7.50600e-06
 Reference value :  7.50701e-06
 Reference value :  7.50826e-06
 Reference value :  7.50973e-06
 Reference value :  7.51115e-06
 Reference value :  7.51283e-06
 Reference value :  7.51438e-06
 Reference value :  7.51607e-06
 Reference value :  7.51780e-06
 Reference value :  7.51970e-06
 Reference value :  7.52348e-06
 Reference value :  7.52972e-06
 Reference value :  7.54040e-06
 Reference value :  7.56134e-06
 Reference value :  7.59979e-06
 Reference value :  7.67141e-06
 Reference value :  7.75010e-06
 Reference value :  7.75011e-06
 Reference value :  7.75013e-06
 Reference value :  7.75017e-06
 Reference value :  7.75020e-06
 Reference value :  7.75020e-06
 Reference value :  7.75020e-06
 Reference value :  7.75021e-06
 Reference value :  7.75021e-06
 Reference value :  7.75022e-06
 Reference value :  7.75025e-06
 Reference value :  7.75030e-06
 Reference value :  7.75039e-06
 Reference value :  7.75059e-06
 Reference value :  7.75094e-06
 Reference value :  7.75136e-06
 Reference value :  7.75188e-06
 Reference value :  7.75249e-06
 Reference value :  7.75326e-06
 Reference value :  7.75414e-06
 Reference value :  7.75531e-06
 Reference value :  7.75626e-06
 Reference value :  7.75725e-06
 Reference value :  7.75827e-06
 Reference value :  7.75940e-06
 Reference value :  7.76065e-06
 Reference value :  7.76305e-06
 Reference value :  7.76586e-06
 Reference value :  7.77064e-06
 Reference value :  7.77979e-06
 Reference value :  7.79800e-06
 Reference value :  7.83134e-06
 Reference value :  7.89786e-06
 Reference value :  8.00000e-06
 Reference value :  8.00001e-06
 Reference value :  8.00003e-06
 Reference value :  8.00007e-06
 Reference value :  8.00010e-06
 Reference value :  8.00010e-06
 Reference value :  8.00011e-06
 Reference value :  8.00013e-06
 Reference value :  8.00016e-06
 Reference value :  8.00023e-06
 Reference value :  8.00036e-06
 Reference value :  8.00053e-06
 Reference value :  8.00087e-06
 Reference value :  8.00150e-06
 Reference value :  8.00218e-06
 Reference value :  8.00280e-06
 Reference value :  8.00345e-06
 Reference value :  8.00414e-06
 Reference value :  8.00499e-06
 Reference value :  8.00588e-06
 Reference value :  8.00669e-06
 Reference value :  8.00773e-06
 Reference value :  8.00871e-06
 Reference value :  8.00974e-06
 Reference value :  8.01072e-06
 Reference value :  8.01204e-06
 Reference value :  8.01371e-06
 Reference value :  8.01602e-06
 Reference value :  8.01872e-06
 Reference value :  8.02109e-06
 Reference value :  8.02353e-06
 Reference value :  8.02726e-06
 Reference value :  8.03094e-06
 Reference value :  8.03735e-06
 Reference value :  8.04600e-06
 Reference value :  8.05944e-06
 Reference value :  8.08153e-06
 Reference value :  8.11897e-06
 Reference value :  8.18097e-06
 Reference value :  8.25010e-06
 Reference value :  8.25011e-06
 Reference value :  8.25013e-06
 Reference value :  8.25017e-06
 Reference value :  8.25020e-06
 Reference value :  8.25020e-06
 Reference value :  8.25020e-06
 Reference value :  8.25021e-06
 Reference value :  8.25021e-06
 Reference value :  8.25022e-06
 Reference value :  8.25025e-06
 Reference value :  8.25030e-06
 Reference value :  8.25039e-06
 Reference value :  8.25059e-06
 Reference value :  8.25098e-06
 Reference value :  8.25139e-06
 Reference value :  8.25189e-06
 Reference value :  8.25250e-06
 Reference value :  8.25330e-06
 Reference value :  8.25418e-06
 Reference value :  8.25526e-06
 Reference value :  8.25645e-06
 Reference value :  8.25784e-06
 Reference value :  8.25942e-06
 Reference value :  8.26126e-06
 Reference value :  8.26401e-06
 Reference value :  8.26675e-06
 Reference value :  8.27191e-06
 Reference value :  8.28224e-06
 Reference value :  8.29902e-06
 Reference value :  8.33246e-06
 Reference value :  8.39196e-06
 Reference value :  8.50000e-06
 Reference value :  8.50000e-06
 Reference value :  8.50000e-06
 Reference value :  8.50000e-06
 Reference value :  8.50000e-06
 Reference value :  8.50000e-06
 Reference value :  8.50000e-06
 Reference value :  8.50000e-06
 Reference value :  8.50000e-06
 Reference value :  8.50001e-06
 Reference value :  8.50001e-06
 Reference value :  8.50002e-06
 Reference value :  8.50004e-06
 Reference value :  8.50008e-06
 Reference value :  8.50010e-06
 Reference value :  8.50010e-06
 Reference value :  8.50011e-06
 Reference value :  8.50012e-06
 Reference value :  8.50014e-06
 Reference value :  8.50018e-06
 Reference value :  8.50026e-06
 Reference value :  8.50043e-06
 Reference value :  8.50077e-06
 Reference value :  8.50124e-06
 Reference value :  8.50211e-06
 Reference value :  8.50295e-06
 Reference value :  8.50360e-06
 Reference value :  8.50441e-06
 Reference value :  8.50523e-06
 Reference value :  8.50622e-06
 Reference value :  8.50737e-06
 Reference value :  8.50865e-06
 Reference value :  8.51072e-06
 Reference value :  8.51234e-06
 Reference value :  8.51406e-06
 Reference value :  8.51588e-06
 Reference value :  8.51780e-06
 Reference value :  8.52005e-06
 Reference value :  8.52272e-06
 Reference value :  8.52806e-06
 Reference value :  8.53292e-06
 Reference value :  8.53667e-06
 Reference value :  8.54007e-06
 Reference value :  8.54290e-06
 Reference value :  8.54542e-06
 Reference value :  8.54750e-06
 Reference value :  8.54935e-06
 Reference value :  8.55126e-06
 Reference value :  8.55327e-06
 Reference value :  8.55605e-06
 Reference value :  8.55864e-06
 Reference value :  8.56149e-06
 Reference value :  8.56618e-06
 Reference value :  8.57464e-06
 Reference value :  8.58458e-06
 Reference value :  8.59525e-06
 Reference value :  8.60663e-06
 Reference value :  8.62243e-06
 Reference value :  8.64043e-06
 Reference value :  8.66312e-06
 Reference value :  8.69318e-06
 Reference value :  8.73946e-06
 Reference value :  8.75010e-06
 Reference value :  8.75011e-06
 Reference value :  8.75013e-06
 Reference value :  8.75017e-06
 Reference value :  8.75020e-06
 Reference value :  8.75020e-06
 Reference value :  8.75020e-06
 Reference value :  8.75021e-06
 Reference value :  8.75021e-06
 Reference value :  8.75022e-06
 Reference value :  8.75025e-06
 Reference value :  8.75030e-06
 Reference value :  8.75039e-06
 Reference value :  8.75058e-06
 Reference value :  8.75096e-06
 Reference value :  8.75137e-06
 Reference value :  8.75190e-06
 Reference value :  8.75251e-06
 Reference value :  8.75330e-06
 Reference value :  8.75419e-06
 Reference value :  8.75539e-06
 Reference value :  8.75635e-06
 Reference value :  8.75734e-06
 Reference value :  8.75842e-06
 Reference value :  8.75999e-06
 Reference value :  8.76154e-06
 Reference value :  8.76395e-06
 Reference value :  8.76725e-06
 Reference value :  8.77329e-06
 Reference value :  8.78536e-06
 Reference value :  8.80508e-06
 Reference value :  8.84454e-06
 Reference value :  8.91524e-06
 Reference value :  9.00000e-06
 Reference value :  9.00001e-06
 Reference value :  9.00003e-06
 Reference value :  9.00007e-06
 Reference value :  9.00010e-06
 Reference value :  9.00010e-06
 Reference value :  9.00011e-06
 Reference value :  9.00013e-06
 Reference value :  9.00016e-06
 Reference value :  9.00023e-06
 Reference value :  9.00036e-06
 Reference value :  9.00054e-06
 Reference value :  9.00089e-06
 Reference value :  9.00151e-06
 Reference value :  9.00220e-06
 Reference value :  9.00282e-06
 Reference value :  9.00350e-06
 Reference value :  9.00421e-06
 Reference value :  9.00519e-06
 Reference value :  9.00613e-06
 Reference value :  9.00711e-06
 Reference value :  9.00846e-06
 Reference value :  9.00985e-06
 Reference value :  9.01176e-06
 Reference value :  9.01407e-06
 Reference value :  9.01592e-06
 Reference value :  9.01789e-06
 Reference value :  9.01995e-06
 Reference value :  9.02225e-06
 Reference value :  9.02483e-06
 Reference value :  9.02754e-06
 Reference value :  9.03254e-06
 Reference value :  9.04096e-06
 Reference value :  9.05051e-06
 Reference value :  9.06960e-06
 Reference value :  9.10777e-06
 Reference value :  9.17139e-06
 Reference value :  9.25010e-06
 Reference value :  9.25011e-06
 Reference value :  9.25013e-06
 Reference value :  9.25017e-06
 Reference value :  9.25020e-06
 Reference value :  9.25020e-06
 Reference value :  9.25020e-06
 Reference value :  9.25021e-06
 Reference value :  9.25021e-06
 Reference value :  9.25022e-06
 Reference value :  9.25025e-06
 Reference value :  9.25030e-06
 Reference value :  9.25039e-06
 Reference value :  9.25059e-06
 Reference value :  9.25098e-06
 Reference value :  9.25139e-06
 Reference value :  9.25191e-06
 Reference value :  9.25252e-06
 Reference value :  9.25332e-06
 Reference value :  9.25422e-06
 Reference value :  9.25541e-06
 Reference value :  9.25650e-06
 Reference value :  9.25751e-06
 Reference value :  9.25859e-06
 Reference value :  9.25983e-06
 Reference value :  9.26116e-06
 Reference value :  9.26359e-06
 Reference value :  9.26677e-06
 Reference value :  9.27237e-06
 Reference value :  9.28356e-06
 Reference value :  9.30272e-06
 Reference value :  9.34006e-06
 Reference value :  9.40842e-06
 Reference value :  9.50000e-06
 Reference value :  9.50001e-06
 Reference value :  9.50003e-06
 Reference value :  9.50007e-06
 Reference value :  9.50010e-06
 Reference value :  9.50010e-06
 Reference value :  9.50011e-06
 Reference value :  9.50013e-06
 Reference value :  9.50016e-06
 Reference value :  9.50023e-06
 Reference value :  9.50036e-06
 Reference value :  9.50054e-06
 Reference value :  9.50089e-06
 Reference value :  9.50151e-06
 Reference value :  9.50220e-06
 Reference value :  9.50282e-06
 Reference value :  9.50346e-06
 Reference value :  9.50415e-06
 Reference value :  9.50499e-06
 Reference value :  9.50587e-06
 Reference value :  9.50671e-06
 Reference value :  9.50777e-06
 Reference value :  9.50887e-06
 Reference value :  9.50996e-06
 Reference value :  9.51099e-06
 Reference value :  9.51243e-06
 Reference value :  9.51411e-06
 Reference value :  9.51683e-06
 Reference value :  9.51884e-06
 Reference value :  9.52100e-06
 Reference value :  9.52261e-06
 Reference value :  9.52414e-06
 Reference value :  9.52559e-06
 Reference value :  9.52715e-06
 Reference value :  9.52888e-06
 Reference value :  9.53114e-06
 Reference value :  9.53350e-06
 Reference value :  9.53812e-06
 Reference value :  9.54450e-06
 Reference value :  9.55563e-06
 Reference value :  9.57378e-06
 Reference value :  9.59948e-06
 Reference value :  9.63896e-06
 Reference value :  9.71674e-06
 Reference value :  9.75010e-06
 Reference value :  9.75011e-06
 Reference value :  9.75013e-06
 Reference value :  9.75017e-06
 Reference value :  9.75020e-06
 Reference value :  9.75020e-06
 Reference value :  9.75020e-06
 Reference value :  9.75021e-06
 Reference value :  9.75021e-06
 Reference value :  9.75022e-06
 Reference value :  9.75025e-06
 Reference value :  9.75029e-06
 Reference value :  9.75039e-06
 Reference value :  9.75058e-06
 Reference value :  9.75092e-06
 Reference value :  9.75135e-06
 Reference value :  9.75187e-06
 Reference value :  9.75248e-06
 Reference value :  9.75324e-06
 Reference value :  9.75412e-06
 Reference value :  9.75531e-06
 Reference value :  9.75621e-06
 Reference value :  9.75716e-06
 Reference value :  9.75825e-06
 Reference value :  9.75980e-06
 Reference value :  9.76125e-06
 Reference value :  9.76377e-06
 Reference value :  9.76675e-06
 Reference value :  9.77225e-06
 Reference value :  9.78325e-06
 Reference value :  9.80228e-06
 Reference value :  9.84034e-06
 Reference value :  9.91129e-06
 Reference value :  1.00000e-05
 Reference value :  1.00000e-05
 Reference value :  1.00000e-05
 Reference value :  1.00001e-05
 Reference value :  1.00001e-05
 Reference value :  1.00001e-05
 Reference value :  1.00001e-05
 Reference value :  1.00001e-05
 Reference value :  1.00002e-05
 Reference value :  1.00002e-05
 Reference value :  1.00004e-05
 Reference value :  1.00005e-05
 Reference value :  1.00009e-05
 Reference value :  1.00014e-05
 Reference value :  1.00022e-05
 Reference value :  1.00029e-05
 Reference value :  1.00036e-05
 Reference value :  1.00043e-05
 Reference value :  1.00052e-05
 Reference value :  1.00062e-05
 Reference value :  1.00072e-05
 Reference value :  1.00086e-05
 Reference value :  1.00100e-05
 Reference value :  1.00113e-05
 Reference value :  1.00127e-05
 Reference value :  1.00142e-05
 Reference value :  1.00159e-05
 Reference value :  1.00174e-05
 Reference value :  1.00195e-05
 Reference value :  1.00216e-05
 Reference value :  1.00254e-05
 Reference value :  1.00312e-05
 Reference value :  1.00412e-05
 Reference value :  1.00596e-05
 Reference value :  1.00920e-05
 Reference value :  1.01534e-05
 Reference value :  1.02501e-05
 Reference value :  1.02501e-05
 Reference value :  1.02501e-05
 Reference value :  1.02502e-05
 Reference value :  1.02502e-05
 Reference value :  1.02502e-05
 Reference value :  1.02502e-05
 Reference value :  1.02502e-05
 Reference value :  1.02502e-05
 Reference value :  1.02502e-05
 Reference value :  1.02502e-05
 Reference value :  1.02503e-05
 Reference value :  1.02504e-05
 Reference value :  1.02506e-05
 Reference value :  1.02509e-05
 Reference value :  1.02513e-05
 Reference value :  1.02519e-05
 Reference value :  1.02525e-05
 Reference value :  1.02532e-05
 Reference value :  1.02541e-05
 Reference value :  1.02553e-05
 Reference value :  1.02562e-05
 Reference value :  1.02571e-05
 Reference value :  1.02582e-05
 Reference value :  1.02593e-05
 Reference value :  1.02605e-05
 Reference value :  1.02629e-05
 Reference value :  1.02656e-05
 Reference value :  1.02702e-05
 Reference value :  1.02785e-05
 Reference value :  1.02951e-05
 Reference value :  1.03283e-05
 Reference value :  1.03930e-05
 Reference value :  1.05000e-05
 Reference value :  1.05000e-05
 Reference value :  1.05000e-05
 Reference value :  1.05001e-05
 Reference value :  1.05001e-05
 Reference value :  1.05001e-05
 Reference value :  1.05001e-05
 Reference value :  1.05001e-05
 Reference value :  1.05002e-05
 Reference value :  1.05002e-05
 Reference value :  1.05004e-05
 Reference value :  1.05005e-05
 Reference value :  1.05009e-05
 Reference value :  1.05014e-05
 Reference value :  1.05022e-05
 Reference value :  1.05029e-05
 Reference value :  1.05036e-05
 Reference value :  1.05043e-05
 Reference value :  1.05053e-05
 Reference value :  1.05060e-05
 Reference value :  1.05069e-05
 Reference value :  1.05078e-05
 Reference value :  1.05089e-05
 Reference value :  1.05099e-05
 Reference value :  1.05110e-05
 Reference value :  1.05124e-05
 Reference value :  1.05140e-05
 Reference value :  1.05163e-05
 Reference value :  1.05185e-05
 Reference value :  1.05205e-05
 Reference value :  1.05221e-05
 Reference value :  1.05237e-05
 Reference value :  1.05253e-05
 Reference value :  1.05270e-05
 Reference value :  1.05289e-05
 Reference value :  1.05308e-05
 Reference value :  1.05335e-05
 Reference value :  1.05379e-05
 Reference value :  1.05456e-05
 Reference value :  1.05601e-05
 Reference value :  1.05748e-05
 Reference value :  1.05923e-05
 Reference value :  1.06113e-05
 Reference value :  1.06243e-05
 Reference value :  1.06365e-05
 Reference value :  1.06453e-05
 Reference value :  1.06527e-05
 Reference value :  1.06607e-05
 Reference value :  1.06698e-05
 Reference value :  1.06833e-05
 Reference value :  1.07029e-05
 Reference value :  1.07305e-05
 Reference value :  1.07501e-05
 Reference value :  1.07501e-05
 Reference value :  1.07501e-05
 Reference value :  1.07502e-05
 Reference value :  1.07502e-05
 Reference value :  1.07502e-05
 Reference value :  1.07502e-05
 Reference value :  1.07502e-05
 Reference value :  1.07502e-05
 Reference value :  1.07502e-05
 Reference value :  1.07502e-05
 Reference value :  1.07503e-05
 Reference value :  1.07504e-05
 Reference value :  1.07506e-05
 Reference value :  1.07509e-05
 Reference value :  1.07513e-05
 Reference value :  1.07519e-05
 Reference value :  1.07525e-05
 Reference value :  1.07532e-05
 Reference value :  1.07541e-05
 Reference value :  1.07552e-05
 Reference value :  1.07562e-05
 Reference value :  1.07571e-05
 Reference value :  1.07582e-05
 Reference value :  1.07598e-05
 Reference value :  1.07613e-05
 Reference value :  1.07638e-05
 Reference value :  1.07668e-05
 Reference value :  1.07722e-05
 Reference value :  1.07829e-05
 Reference value :  1.08017e-05
 Reference value :  1.08390e-05
 Reference value :  1.09098e-05
 Reference value :  1.10000e-05
 Reference value :  1.10000e-05
 Reference value :  1.10000e-05
 Reference value :  1.10001e-05
 Reference value :  1.10001e-05
 Reference value :  1.10001e-05
 Reference value :  1.10001e-05
 Reference value :  1.10001e-05
 Reference value :  1.10002e-05
 Reference value :  1.10002e-05
 Reference value :  1.10004e-05
 Reference value :  1.10005e-05
 Reference value :  1.10009e-05
 Reference value :  1.10014e-05
 Reference value :  1.10022e-05
 Reference value :  1.10028e-05
 Reference value :  1.10035e-05
 Reference value :  1.10042e-05
 Reference value :  1.10051e-05
 Reference value :  1.10061e-05
 Reference value :  1.10071e-05
 Reference value :  1.10085e-05
 Reference value :  1.10099e-05
 Reference value :  1.10113e-05
 Reference value :  1.10128e-05
 Reference value :  1.10146e-05
 Reference value :  1.10163e-05
 Reference value :  1.10182e-05
 Reference value :  1.10204e-05
 Reference value :  1.10242e-05
 Reference value :  1.10301e-05
 Reference value :  1.10410e-05
 Reference value :  1.10619e-05
 Reference value :  1.11000e-05
 Reference value :  1.11762e-05
 Reference value :  1.12501e-05
 Reference value :  1.12501e-05
 Reference value :  1.12501e-05
 Reference value :  1.12502e-05
 Reference value :  1.12502e-05
 Reference value :  1.12502e-05
 Reference value :  1.12502e-05
 Reference value :  1.12502e-05
 Reference value :  1.12502e-05
 Reference value :  1.12502e-05
 Reference value :  1.12502e-05
 Reference value :  1.12503e-05
 Reference value :  1.12504e-05
 Reference value :  1.12506e-05
 Reference value :  1.12509e-05
 Reference value :  1.12514e-05
 Reference value :  1.12519e-05
 Reference value :  1.12525e-05
 Reference value :  1.12533e-05
 Reference value :  1.12541e-05
 Reference value :  1.12553e-05
 Reference value :  1.12562e-05
 Reference value :  1.12572e-05
 Reference value :  1.12582e-05
 Reference value :  1.12593e-05
 Reference value :  1.12606e-05
 Reference value :  1.12618e-05
 Reference value :  1.12632e-05
 Reference value :  1.12654e-05
 Reference value :  1.12677e-05
 Reference value :  1.12713e-05
 Reference value :  1.12770e-05
 Reference value :  1.12883e-05
 Reference value :  1.13110e-05
 Reference value :  1.13563e-05
 Reference value :  1.14469e-05
 Reference value :  1.15000e-05
 Reference value :  1.15000e-05
 Reference value :  1.15000e-05
 Reference value :  1.15001e-05
 Reference value :  1.15001e-05
 Reference value :  1.15001e-05
 Reference value :  1.15001e-05
 Reference value :  1.15001e-05
 Reference value :  1.15002e-05
 Reference value :  1.15002e-05
 Reference value :  1.15004e-05
 Reference value :  1.15005e-05
 Reference value :  1.15009e-05
 Reference value :  1.15014e-05
 Reference value :  1.15022e-05
 Reference value :  1.15029e-05
 Reference value :  1.15036e-05
 Reference value :  1.15043e-05
 Reference value :  1.15051e-05
 Reference value :  1.15059e-05
 Reference value :  1.15067e-05
 Reference value :  1.15078e-05
 Reference value :  1.15088e-05
 Reference value :  1.15097e-05
 Reference value :  1.15108e-05
 Reference value :  1.15121e-05
 Reference value :  1.15137e-05
 Reference value :  1.15152e-05
 Reference value :  1.15169e-05
 Reference value :  1.15185e-05
 Reference value :  1.15202e-05
 Reference value :  1.15215e-05
 Reference value :  1.15227e-05
 Reference value :  1.15241e-05
 Reference value :  1.15256e-05
 Reference value :  1.15270e-05
 Reference value :  1.15287e-05
 Reference value :  1.15309e-05
 Reference value :  1.15332e-05
 Reference value :  1.15377e-05
 Reference value :  1.15422e-05
 Reference value :  1.15464e-05
 Reference value :  1.15514e-05
 Reference value :  1.15545e-05
 Reference value :  1.15574e-05
 Reference value :  1.15597e-05
 Reference value :  1.15623e-05
 Reference value :  1.15660e-05
 Reference value :  1.15706e-05
 Reference value :  1.15775e-05
 Reference value :  1.15870e-05
 Reference value :  1.16019e-05
 Reference value :  1.16239e-05
 Reference value :  1.16578e-05
 Reference value :  1.16868e-05
 Reference value :  1.17178e-05
 Reference value :  1.17501e-05
 Reference value :  1.17501e-05
 Reference value :  1.17501e-05
 Reference value :  1.17502e-05
 Reference value :  1.17502e-05
 Reference value :  1.17502e-05
 Reference value :  1.17502e-05
 Reference value :  1.17502e-05
 Reference value :  1.17502e-05
 Reference value :  1.17502e-05
 Reference value :  1.17502e-05
 Reference value :  1.17503e-05
 Reference value :  1.17504e-05
 Reference value :  1.17506e-05
 Reference value :  1.17509e-05
 Reference value :  1.17513e-05
 Reference value :  1.17519e-05
 Reference value :  1.17525e-05
 Reference value :  1.17532e-05
 Reference value :  1.17541e-05
 Reference value :  1.17553e-05
 Reference value :  1.17562e-05
 Reference value :  1.17571e-05
 Reference value :  1.17582e-05
 Reference value :  1.17598e-05
 Reference value :  1.17612e-05
 Reference value :  1.17637e-05
 Reference value :  1.17666e-05
 Reference value :  1.17721e-05
 Reference value :  1.17830e-05
 Reference value :  1.18019e-05
 Reference value :  1.18398e-05
 Reference value :  1.19132e-05
 Reference value :  1.20000e-05
 Reference value :  1.20000e-05
 Reference value :  1.20000e-05
 Reference value :  1.20001e-05
 Reference value :  1.20001e-05
 Reference value :  1.20001e-05
 Reference value :  1.20001e-05
 Reference value :  1.20001e-05
 Reference value :  1.20002e-05
 Reference value :  1.20002e-05
 Reference value :  1.20004e-05
 Reference value :  1.20005e-05
 Reference value :  1.20009e-05
 Reference value :  1.20014e-05
 Reference value :  1.20022e-05
 Reference value :  1.20029e-05
 Reference value :  1.20036e-05
 Reference value :  1.20043e-05
 Reference value :  1.20052e-05
 Reference value :  1.20062e-05
 Reference value :  1.20072e-05
 Reference value :  1.20086e-05
 Reference value :  1.20100e-05
 Reference value :  1.20113e-05
 Reference value :  1.20126e-05
 Reference value :  1.20142e-05
 Reference value :  1.20158e-05
 Reference value :  1.20176e-05
 Reference value :  1.20196e-05
 Reference value :  1.20235e-05
 Reference value :  1.20294e-05
 Reference value :  1.20413e-05
 Reference value :  1.20638e-05
 Reference value :  1.21041e-05
 Reference value :  1.21833e-05
 Reference value :  1.22501e-05
 Reference value :  1.22501e-05
 Reference value :  1.22501e-05
 Reference value :  1.22502e-05
 Reference value :  1.22502e-05
 Reference value :  1.22502e-05
 Reference value :  1.22502e-05
 Reference value :  1.22502e-05
 Reference value :  1.22502e-05
 Reference value :  1.22502e-05
 Reference value :  1.22502e-05
 Reference value :  1.22503e-05
 Reference value :  1.22504e-05
 Reference value :  1.22506e-05
 Reference value :  1.22509e-05
 Reference value :  1.22514e-05
 Reference value :  1.22519e-05
 Reference value :  1.22525e-05
 Reference value :  1.22533e-05
 Reference value :  1.22541e-05
 Reference value :  1.22553e-05
 Reference value :  1.22562e-05
 Reference value :  1.22572e-05
 Reference value :  1.22582e-05
 Reference value :  1.22593e-05
 Reference value :  1.22606e-05
 Reference value :  1.22630e-05
 Reference value :  1.22657e-05
 Reference value :  1.22703e-05
 Reference value :  1.22788e-05
 Reference value :  1.22957e-05
 Reference value :  1.23288e-05
 Reference value :  1.23948e-05
 Reference value :  1.25000e-05
 Reference value :  1.25000e-05
 Reference value :  1.25000e-05
 Reference value :  1.25001e-05
 Reference value :  1.25001e-05
 Reference value :  1.25001e-05
 Reference value :  1.25001e-05
 Reference value :  1.25001e-05
 Reference value :  1.25002e-05
 Reference value :  1.25002e-05
 Reference value :  1.25004e-05
 Reference value :  1.25005e-05
 Reference value :  1.25009e-05
 Reference value :  1.25014e-05
 Reference value :  1.25022e-05
 Reference value :  1.25029e-05
 Reference value :  1.25036e-05
 Reference value :  1.25043e-05
 Reference value :  1.25052e-05
 Reference value :  1.25060e-05
 Reference value :  1.25069e-05
 Reference value :  1.25078e-05
 Reference value :  1.25089e-05
 Reference value :  1.25099e-05
 Reference value :  1.25110e-05
 Reference value :  1.25123e-05
 Reference value :  1.25141e-05
 Reference value :  1.25167e-05
 Reference value :  1.25187e-05
 Reference value :  1.25208e-05
 Reference value :  1.25223e-05
 Reference value :  1.25238e-05
 Reference value :  1.25252e-05
 Reference value :  1.25268e-05
 Reference value :  1.25284e-05
 Reference value :  1.25306e-05
 Reference value :  1.25329e-05
 Reference value :  1.25374e-05
 Reference value :  1.25439e-05
 Reference value :  1.25501e-05
 Reference value :  1.25588e-05
 Reference value :  1.25685e-05
 Reference value :  1.25749e-05
 Reference value :  1.25818e-05
 Reference value :  1.25909e-05
 Reference value :  1.25982e-05
 Reference value :  1.26063e-05
 Reference value :  1.26141e-05
 Reference value :  1.26228e-05
 Reference value :  1.26337e-05
 Reference value :  1.26534e-05
 Reference value :  1.26770e-05
 Reference value :  1.27183e-05
 Reference value :  1.27501e-05
 Reference value :  1.27501e-05
 Reference value :  1.27501e-05
 Reference value :  1.27502e-05
 Reference value :  1.27502e-05
 Reference value :  1.27502e-05
 Reference value :  1.27502e-05
 Reference value :  1.27502e-05
 Reference value :  1.27502e-05
 Reference value :  1.27502e-05
 Reference value :  1.27502e-05
 Reference value :  1.27503e-05
 Reference value :  1.27504e-05
 Reference value :  1.27506e-05
 Reference value :  1.27509e-05
 Reference value :  1.27514e-05
 Reference value :  1.27519e-05
 Reference value :  1.27525e-05
 Reference value :  1.27533e-05
 Reference value :  1.27541e-05
 Reference value :  1.27553e-05
 Reference value :  1.27562e-05
 Reference value :  1.27572e-05
 Reference value :  1.27583e-05
 Reference value :  1.27599e-05
 Reference value :  1.27615e-05
 Reference value :  1.27639e-05
 Reference value :  1.27671e-05
 Reference value :  1.27725e-05
 Reference value :  1.27835e-05
 Reference value :  1.27941e-05
 Reference value :  1.28020e-05
 Reference value :  1.28095e-05
 Reference value :  1.28165e-05
 Reference value :  1.28239e-05
 Reference value :  1.28328e-05
 Reference value :  1.28432e-05
 Reference value :  1.28640e-05
 Reference value :  1.28910e-05
 Reference value :  1.29381e-05
 Reference value :  1.30000e-05
 Reference value :  1.30000e-05
 Reference value :  1.30000e-05
 Reference value :  1.30001e-05
 Reference value :  1.30001e-05
 Reference value :  1.30001e-05
 Reference value :  1.30001e-05
 Reference value :  1.30001e-05
 Reference value :  1.30002e-05
 Reference value :  1.30002e-05
 Reference value :  1.30004e-05
 Reference value :  1.30005e-05
 Reference value :  1.30009e-05
 Reference value :  1.30014e-05
 Reference value :  1.30022e-05
 Reference value :  1.30029e-05
 Reference value :  1.30036e-05
 Reference value :  1.30043e-05
 Reference value :  1.30052e-05
 Reference value :  1.30062e-05
 Reference value :  1.30072e-05
 Reference value :  1.30086e-05
 Reference value :  1.30100e-05
 Reference value :  1.30113e-05
 Reference value :  1.30125e-05
 Reference value :  1.30138e-05
 Reference value :  1.30153e-05
 Reference value :  1.30169e-05
 Reference value :  1.30186e-05
 Reference value :  1.30221e-05
 Reference value :  1.30289e-05
 Reference value :  1.30406e-05
 Reference value :  1.30638e-05
 Reference value :  1.31074e-05
 Reference value :  1.31889e-05
 Reference value :  1.32501e-05
 Reference value :  1.32501e-05
 Reference value :  1.32501e-05
 Reference value :  1.32502e-05
 Reference value :  1.32502e-05
 Reference value :  1.32502e-05
 Reference value :  1.32502e-05
 Reference value :  1.32502e-05
 Reference value :  1.32502e-05
 Reference value :  1.32502e-05
 Reference value :  1.32502e-05
 Reference value :  1.32503e-05
 Reference value :  1.32504e-05
 Reference value :  1.32506e-05
 Reference value :  1.32509e-05
 Reference value :  1.32514e-05
 Reference value :  1.32519e-05
 Reference value :  1.32525e-05
 Reference value :  1.32533e-05
 Reference value :  1.32541e-05
 Reference value :  1.32553e-05
 Reference value :  1.32562e-05
 Reference value :  1.32572e-05
 Reference value :  1.32582e-05
 Reference value :  1.32593e-05
 Reference value :  1.32606e-05
 Reference value :  1.32630e-05
 Reference value :  1.32657e-05
 Reference value :  1.32703e-05
 Reference value :  1.32788e-05
 Reference value :  1.32956e-05
 Reference value :  1.33287e-05
 Reference value :  1.33940e-05
 Reference value :  1.35000e-05
 Reference value :  1.35000e-05
 Reference value :  1.35000e-05
 Reference value :  1.35001e-05
 Reference value :  1.35001e-05
 Reference value :  1.35001e-05
 Reference value :  1.35001e-05
 Reference value :  1.35001e-05
 Reference value :  1.35002e-05
 Reference value :  1.35002e-05
 Reference value :  1.35004e-05
 Reference value :  1.35005e-05
 Reference value :  1.35009e-05
 Reference value :  1.35014e-05
 Reference value :  1.35022e-05
 Reference value :  1.35029e-05
 Reference value :  1.35036e-05
 Reference value :  1.35043e-05
 Reference value :  1.35053e-05
 Reference value :  1.35060e-05
 Reference value :  1.35069e-05
 Reference value :  1.35078e-05
 Reference value :  1.35087e-05
 Reference value :  1.35097e-05
 Reference value :  1.35107e-05
 Reference value :  1.35119e-05
 Reference value :  1.35136e-05
 Reference value :  1.35158e-05
 Reference value :  1.35181e-05
 Reference value :  1.35204e-05
 Reference value :  1.35221e-05
 Reference value :  1.35236e-05
 Reference value :  1.35252e-05
 Reference value :  1.35269e-05
 Reference value :  1.35290e-05
 Reference value :  1.35309e-05
 Reference value :  1.35337e-05
 Reference value :  1.35380e-05
 Reference value :  1.35441e-05
 Reference value :  1.35507e-05
 Reference value :  1.35556e-05
 Reference value :  1.35608e-05
 Reference value :  1.35662e-05
 Reference value :  1.35720e-05
 Reference value :  1.35788e-05
 Reference value :  1.35847e-05
 Reference value :  1.35918e-05
 Reference value :  1.36042e-05
 Reference value :  1.36208e-05
 Reference value :  1.36472e-05
 Reference value :  1.36878e-05
 Reference value :  1.37491e-05
 Reference value :  1.37501e-05
 Reference value :  1.37501e-05
 Reference value :  1.37501e-05
 Reference value :  1.37502e-05
 Reference value :  1.37502e-05
 Reference value :  1.37502e-05
 Reference value :  1.37502e-05
 Reference value :  1.37502e-05
 Reference value :  1.37502e-05
 Reference value :  1.37502e-05
 Reference value :  1.37502e-05
 Reference value :  1.37503e-05
 Reference value :  1.37504e-05
 Reference value :  1.37506e-05
 Reference value :  1.37509e-05
 Reference value :  1.37513e-05
 Reference value :  1.37519e-05
 Reference value :  1.37525e-05
 Reference value :  1.37532e-05
 Reference value :  1.37541e-05
 Reference value :  1.37552e-05
 Reference value :  1.37562e-05
 Reference value :  1.37571e-05
 Reference value :  1.37582e-05
 Reference value :  1.37598e-05
 Reference value :  1.37613e-05
 Reference value :  1.37638e-05
 Reference value :  1.37668e-05
 Reference value :  1.37722e-05
 Reference value :  1.37829e-05
 Reference value :  1.38016e-05
 Reference value :  1.38389e-05
 Reference value :  1.39100e-05
 Reference value :  1.40000e-05
 Reference value :  1.40000e-05
 Reference value :  1.40000e-05
 Reference value :  1.40001e-05
 Reference value :  1.40001e-05
 Reference value :  1.40001e-05
 Reference value :  1.40001e-05
 Reference value :  1.40001e-05
 Reference value :  1.40002e-05
 Reference value :  1.40002e-05
 Reference value :  1.40004e-05
 Reference value :  1.40005e-05
 Reference value :  1.40009e-05
 Reference value :  1.40014e-05
 Reference value :  1.40022e-05
 Reference value :  1.40028e-05
 Reference value :  1.40035e-05
 Reference value :  1.40042e-05
 Reference value :  1.40052e-05
 Reference value :  1.40061e-05
 Reference value :  1.40071e-05
 Reference value :  1.40085e-05
 Reference value :  1.40099e-05
 Reference value :  1.40112e-05
 Reference value :  1.40126e-05
 Reference value :  1.40139e-05
 Reference value :  1.40153e-05
 Reference value :  1.40169e-05
 Reference value :  1.40186e-05
 Reference value :  1.40220e-05
 Reference value :  1.40288e-05
 Reference value :  1.40403e-05
 Reference value :  1.40634e-05
 Reference value :  1.41069e-05
 Reference value :  1.41938e-05
 Reference value :  1.42501e-05
 Reference value :  1.42501e-05
 Reference value :  1.42501e-05
 Reference value :  1.42502e-05
 Reference value :  1.42502e-05
 Reference value :  1.42502e-05
 Reference value :  1.42502e-05
 Reference value :  1.42502e-05
 Reference value :  1.42502e-05
 Reference value :  1.42502e-05
 Reference value :  1.42502e-05
 Reference value :  1.42503e-05
 Reference value :  1.42504e-05
 Reference value :  1.42506e-05
 Reference value :  1.42509e-05
 Reference value :  1.42514e-05
 Reference value :  1.42519e-05
 Reference value :  1.42525e-05
 Reference value :  1.42533e-05
 Reference value :  1.42541e-05
 Reference value :  1.42553e-05
 Reference value :  1.42562e-05
 Reference value :  1.42572e-05
 Reference value :  1.42582e-05
 Reference value :  1.42593e-05
 Reference value :  1.42606e-05
 Reference value :  1.42618e-05
 Reference value :  1.42632e-05
 Reference value :  1.42654e-05
 Reference value :  1.42677e-05
 Reference value :  1.42713e-05
 Reference value :  1.42770e-05
 Reference value :  1.42884e-05
 Reference value :  1.43111e-05
 Reference value :  1.43562e-05
 Reference value :  1.44463e-05
 Reference value :  1.45000e-05
 Reference value :  1.45000e-05
 Reference value :  1.45000e-05
 Reference value :  1.45001e-05
 Reference value :  1.45001e-05
 Reference value :  1.45001e-05
 Reference value :  1.45001e-05
 Reference value :  1.45001e-05
 Reference value :  1.45002e-05
 Reference value :  1.45002e-05
 Reference value :  1.45004e-05
 Reference value :  1.45005e-05
 Reference value :  1.45009e-05
 Reference value :  1.45014e-05
 Reference value :  1.45022e-05
 Reference value :  1.45029e-05
 Reference value :  1.45036e-05
 Reference value :  1.45043e-05
 Reference value :  1.45051e-05
 Reference value :  1.45059e-05
 Reference value :  1.45067e-05
 Reference value :  1.45078e-05
 Reference value :  1.45088e-05
 Reference value :  1.45097e-05
 Reference value :  1.45108e-05
 Reference value :  1.45120e-05
 Reference value :  1.45139e-05
 Reference value :  1.45152e-05
 Reference value :  1.45167e-05
 Reference value :  1.45182e-05
 Reference value :  1.45198e-05
 Reference value :  1.45212e-05
 Reference value :  1.45223e-05
 Reference value :  1.45236e-05
 Reference value :  1.45248e-05
 Reference value :  1.45261e-05
 Reference value :  1.45278e-05
 Reference value :  1.45294e-05
 Reference value :  1.45322e-05
 Reference value :  1.45347e-05
 Reference value :  1.45377e-05
 Reference value :  1.45410e-05
 Reference value :  1.45434e-05
 Reference value :  1.45461e-05
 Reference value :  1.45488e-05
 Reference value :  1.45517e-05
 Reference value :  1.45564e-05
 Reference value :  1.45634e-05
 Reference value :  1.45735e-05
 Reference value :  1.45889e-05
 Reference value :  1.46117e-05
 Reference value :  1.46507e-05
 Reference value :  1.47159e-05
 Reference value :  1.47501e-05
 Reference value :  1.47501e-05
 Reference value :  1.47501e-05
 Reference value :  1.47502e-05
 Reference value :  1.47502e-05
 Reference value :  1.47502e-05
 Reference value :  1.47502e-05
 Reference value :  1.47502e-05
 Reference value :  1.47502e-05
 Reference value :  1.47502e-05
 Reference value :  1.47502e-05
 Reference value :  1.47503e-05
 Reference value :  1.47504e-05
 Reference value :  1.47506e-05
 Reference value :  1.47509e-05
 Reference value :  1.47514e-05
 Reference value :  1.47519e-05
 Reference value :  1.47525e-05
 Reference value :  1.47533e-05
 Reference value :  1.47541e-05
 Reference value :  1.47553e-05
 Reference value :  1.47562e-05
 Reference value :  1.47572e-05
 Reference value :  1.47582e-05
 Reference value :  1.47598e-05
 Reference value :  1.47613e-05
 Reference value :  1.47638e-05
 Reference value :  1.47668e-05
 Reference value :  1.47723e-05
 Reference value :  1.47834e-05
 Reference value :  1.48023e-05
 Reference value :  1.48401e-05
 Reference value :  1.49101e-05
 Reference value :  1.50000e-05
 Reference value :  1.50000e-05
 Reference value :  1.50000e-05
 Reference value :  1.50001e-05
 Reference value :  1.50001e-05
 Reference value :  1.50001e-05
 Reference value :  1.50001e-05
 Reference value :  1.50001e-05
 Reference value :  1.50002e-05
 Reference value :  1.50002e-05
 Reference value :  1.50004e-05
 Reference value :  1.50005e-05
 Reference value :  1.50009e-05
 Reference value :  1.50014e-05
 Reference value :  1.50022e-05
 Reference value :  1.50029e-05
 Reference value :  1.50036e-05
 Reference value :  1.50043e-05
 Reference value :  1.50052e-05
 Reference value :  1.50062e-05
 Reference value :  1.50071e-05
 Reference value :  1.50086e-05
 Reference value :  1.50100e-05
 Reference value :  1.50113e-05
 Reference value :  1.50126e-05
 Reference value :  1.50139e-05
 Reference value :  1.50154e-05
 Reference value :  1.50169e-05
 Reference value :  1.50186e-05
 Reference value :  1.50221e-05
 Reference value :  1.50289e-05
 Reference value :  1.50405e-05
 Reference value :  1.50636e-05
 Reference value :  1.51071e-05
 Reference value :  1.51884e-05
 Reference value :  1.52501e-05
 Reference value :  1.52501e-05
 Reference value :  1.52501e-05
 Reference value :  1.52502e-05
 Reference value :  1.52502e-05
 Reference value :  1.52502e-05
 Reference value :  1.52502e-05
 Reference value :  1.52502e-05
 Reference value :  1.52502e-05
 Reference value :  1.52502e-05
 Reference value :  1.52502e-05
 Reference value :  1.52503e-05
 Reference value :  1.52504e-05
 Reference value :  1.52506e-05
 Reference value :  1.52509e-05
 Reference value :  1.52514e-05
 Reference value :  1.52519e-05
 Reference value :  1.52525e-05
 Reference value :  1.52533e-05
 Reference value :  1.52541e-05
 Reference value :  1.52553e-05
 Reference value :  1.52562e-05
 Reference value :  1.52572e-05
 Reference value :  1.52582e-05
 Reference value :  1.52593e-05
 Reference value :  1.52605e-05
 Reference value :  1.52630e-05
 Reference value :  1.52656e-05
 Reference value :  1.52702e-05
 Reference value :  1.52786e-05
 Reference value :  1.52954e-05
 Reference value :  1.53283e-05
 Reference value :  1.53941e-05
 Reference value :  1.55000e-05
 Reference value :  1.55017e-05
 Reference value :  1.55050e-05
 Reference value :  1.55067e-05
 Reference value :  1.55084e-05
 Reference value :  1.55098e-05
 Reference value :  1.55112e-05
 Reference value :  1.55128e-05
 Reference value :  1.55144e-05
 Reference value :  1.55166e-05
 Reference value :  1.55191e-05
 Reference value :  1.55213e-05
 Reference value :  1.55231e-05
 Reference value :  1.55248e-05
 Reference value :  1.55266e-05
 Reference value :  1.55284e-05
 Reference value :  1.55304e-05
 Reference value :  1.55324e-05
 Reference value :  1.55351e-05
 Reference value :  1.55373e-05
 Reference value :  1.55399e-05
 Reference value :  1.55424e-05
 Reference value :  1.55454e-05
 Reference value :  1.55514e-05
 Reference value :  1.55578e-05
 Reference value :  1.55644e-05
 Reference value :  1.55711e-05
 Reference value :  1.55783e-05
 Reference value :  1.55927e-05
 Reference value :  1.56216e-05
 Reference value :  1.56645e-05
 Reference value :  1.57265e-05
 Reference value :  1.57501e-05
 Reference value :  1.57501e-05
 Reference value :  1.57501e-05
 Reference value :  1.57502e-05
 Reference value :  1.57502e-05
 Reference value :  1.57502e-05
 Reference value :  1.57502e-05
 Reference value :  1.57502e-05
 Reference value :  1.57502e-05
 Reference value :  1.57502e-05
 Reference value :  1.57502e-05
 Reference value :  1.57503e-05
 Reference value :  1.57504e-05
 Reference value :  1.57506e-05
 Reference value :  1.57509e-05
 Reference value :  1.57514e-05
 Reference value :  1.57519e-05
 Reference value :  1.57525e-05
 Reference value :  1.57532e-05
 Reference value :  1.57541e-05
 Reference value :  1.57552e-05
 Reference value :  1.57563e-05
 Reference value :  1.57572e-05
 Reference value :  1.57584e-05
 Reference value :  1.57599e-05
 Reference value :  1.57617e-05
 Reference value :  1.57640e-05
[...]
 Reference value :  1.74271e-04
 Reference value :  1.74282e-04
 Reference value :  1.74300e-04
 Reference value :  1.74336e-04
 Reference value :  1.74407e-04
 Reference value :  1.74500e-04
 Reference value :  1.74500e-04
 Reference value :  1.74500e-04
 Reference value :  1.74500e-04
 Reference value :  1.74500e-04
 Reference value :  1.74500e-04
 Reference value :  1.74500e-04
 Reference value :  1.74500e-04
 Reference value :  1.74500e-04
 Reference value :  1.74500e-04
 Reference value :  1.74500e-04
 Reference value :  1.74501e-04
 Reference value :  1.74501e-04
 Reference value :  1.74501e-04
 Reference value :  1.74502e-04
 Reference value :  1.74503e-04
 Reference value :  1.74504e-04
 Reference value :  1.74504e-04
 Reference value :  1.74505e-04
 Reference value :  1.74506e-04
 Reference value :  1.74507e-04
 Reference value :  1.74509e-04
 Reference value :  1.74510e-04
 Reference value :  1.74511e-04
 Reference value :  1.74513e-04
 Reference value :  1.74514e-04
 Reference value :  1.74515e-04
 Reference value :  1.74517e-04
 Reference value :  1.74519e-04
 Reference value :  1.74522e-04
 Reference value :  1.74529e-04
 Reference value :  1.74541e-04
 Reference value :  1.74564e-04
 Reference value :  1.74608e-04
 Reference value :  1.74689e-04
 Reference value :  1.74750e-04
 Reference value :  1.74750e-04
 Reference value :  1.74750e-04
 Reference value :  1.74750e-04
 Reference value :  1.74750e-04
 Reference value :  1.74750e-04
 Reference value :  1.74750e-04
 Reference value :  1.74750e-04
 Reference value :  1.74750e-04
 Reference value :  1.74750e-04
 Reference value :  1.74750e-04
 Reference value :  1.74750e-04
 Reference value :  1.74750e-04
 Reference value :  1.74751e-04
 Reference value :  1.74751e-04
 Reference value :  1.74751e-04
 Reference value :  1.74752e-04
 Reference value :  1.74752e-04
 Reference value :  1.74753e-04
 Reference value :  1.74754e-04
 Reference value :  1.74755e-04
 Reference value :  1.74756e-04
 Reference value :  1.74757e-04
 Reference value :  1.74758e-04
 Reference value :  1.74759e-04
 Reference value :  1.74761e-04
 Reference value :  1.74763e-04
 Reference value :  1.74766e-04
 Reference value :  1.74770e-04
 Reference value :  1.74779e-04
 Reference value :  1.74796e-04
 Reference value :  1.74829e-04
 Reference value :  1.74894e-04
 Reference value :  1.75000e-04
 Reference value :  1.75000e-04
 Reference value :  1.75000e-04
 Reference value :  1.75000e-04
 Reference value :  1.75000e-04
 Reference value :  1.75000e-04
 Reference value :  1.75000e-04
 Reference value :  1.75000e-04
 Reference value :  1.75000e-04
 Reference value :  1.75000e-04
 Reference value :  1.75000e-04
 Reference value :  1.75001e-04
 Reference value :  1.75001e-04
 Reference value :  1.75001e-04
 Reference value :  1.75002e-04
 Reference value :  1.75003e-04
 Reference value :  1.75004e-04
 Reference value :  1.75004e-04
 Reference value :  1.75005e-04
 Reference value :  1.75006e-04
 Reference value :  1.75007e-04
 Reference value :  1.75008e-04
 Reference value :  1.75009e-04
 Reference value :  1.75010e-04
 Reference value :  1.75011e-04
 Reference value :  1.75012e-04
 Reference value :  1.75014e-04
 Reference value :  1.75016e-04
 Reference value :  1.75018e-04
 Reference value :  1.75020e-04
 Reference value :  1.75022e-04
 Reference value :  1.75024e-04
 Reference value :  1.75025e-04
 Reference value :  1.75027e-04
 Reference value :  1.75029e-04
 Reference value :  1.75031e-04
 Reference value :  1.75033e-04
 Reference value :  1.75038e-04
 Reference value :  1.75044e-04
 Reference value :  1.75051e-04
 Reference value :  1.75059e-04
 Reference value :  1.75068e-04
 Reference value :  1.75075e-04
 Reference value :  1.75082e-04
 Reference value :  1.75090e-04
 Reference value :  1.75096e-04
 Reference value :  1.75104e-04
 Reference value :  1.75115e-04
 Reference value :  1.75128e-04
 Reference value :  1.75146e-04
 Reference value :  1.75163e-04
 Reference value :  1.75176e-04
 Reference value :  1.75189e-04
 Reference value :  1.75198e-04
 Reference value :  1.75209e-04
 Reference value :  1.75231e-04
 Reference value :  1.75250e-04
 Reference value :  1.75250e-04
 Reference value :  1.75250e-04
 Reference value :  1.75250e-04
 Reference value :  1.75250e-04
 Reference value :  1.75250e-04
 Reference value :  1.75250e-04
 Reference value :  1.75250e-04
 Reference value :  1.75250e-04
 Reference value :  1.75250e-04
 Reference value :  1.75250e-04
 Reference value :  1.75250e-04
 Reference value :  1.75250e-04
 Reference value :  1.75251e-04
 Reference value :  1.75251e-04
 Reference value :  1.75251e-04
 Reference value :  1.75252e-04
 Reference value :  1.75252e-04
 Reference value :  1.75253e-04
 Reference value :  1.75254e-04
 Reference value :  1.75255e-04
 Reference value :  1.75256e-04
 Reference value :  1.75257e-04
 Reference value :  1.75258e-04
 Reference value :  1.75260e-04
 Reference value :  1.75261e-04
 Reference value :  1.75264e-04
 Reference value :  1.75267e-04
 Reference value :  1.75272e-04
 Reference value :  1.75283e-04
 Reference value :  1.75302e-04
 Reference value :  1.75340e-04
 Reference value :  1.75412e-04
 Reference value :  1.75500e-04
 Reference value :  1.75500e-04
 Reference value :  1.75500e-04
 Reference value :  1.75500e-04
 Reference value :  1.75500e-04
 Reference value :  1.75500e-04
 Reference value :  1.75500e-04
 Reference value :  1.75500e-04
 Reference value :  1.75500e-04
 Reference value :  1.75500e-04
 Reference value :  1.75500e-04
 Reference value :  1.75501e-04
 Reference value :  1.75501e-04
 Reference value :  1.75501e-04
 Reference value :  1.75502e-04
 Reference value :  1.75503e-04
 Reference value :  1.75504e-04
 Reference value :  1.75504e-04
 Reference value :  1.75505e-04
 Reference value :  1.75506e-04
 Reference value :  1.75507e-04
 Reference value :  1.75509e-04
 Reference value :  1.75510e-04
 Reference value :  1.75511e-04
 Reference value :  1.75512e-04
 Reference value :  1.75514e-04
 Reference value :  1.75515e-04
 Reference value :  1.75517e-04
 Reference value :  1.75518e-04
 Reference value :  1.75522e-04
 Reference value :  1.75528e-04
 Reference value :  1.75540e-04
 Reference value :  1.75563e-04
 Reference value :  1.75605e-04
 Reference value :  1.75685e-04
 Reference value :  1.75750e-04
 Reference value :  1.75750e-04
 Reference value :  1.75750e-04
 Reference value :  1.75750e-04
 Reference value :  1.75750e-04
 Reference value :  1.75750e-04
 Reference value :  1.75750e-04
 Reference value :  1.75750e-04
 Reference value :  1.75750e-04
 Reference value :  1.75750e-04
 Reference value :  1.75750e-04
 Reference value :  1.75750e-04
 Reference value :  1.75750e-04
 Reference value :  1.75751e-04
 Reference value :  1.75751e-04
 Reference value :  1.75751e-04
 Reference value :  1.75752e-04
 Reference value :  1.75752e-04
 Reference value :  1.75753e-04
 Reference value :  1.75754e-04
 Reference value :  1.75755e-04
 Reference value :  1.75756e-04
 Reference value :  1.75757e-04
 Reference value :  1.75758e-04
 Reference value :  1.75759e-04
 Reference value :  1.75761e-04
 Reference value :  1.75763e-04
 Reference value :  1.75766e-04
 Reference value :  1.75770e-04
 Reference value :  1.75779e-04
 Reference value :  1.75796e-04
 Reference value :  1.75829e-04
 Reference value :  1.75895e-04
 Reference value :  1.76000e-04
 Reference value :  1.76000e-04
 Reference value :  1.76000e-04
 Reference value :  1.76000e-04
 Reference value :  1.76000e-04
 Reference value :  1.76000e-04
 Reference value :  1.76000e-04
 Reference value :  1.76000e-04
 Reference value :  1.76000e-04
 Reference value :  1.76000e-04
 Reference value :  1.76000e-04
 Reference value :  1.76001e-04
 Reference value :  1.76001e-04
 Reference value :  1.76001e-04
 Reference value :  1.76002e-04
 Reference value :  1.76003e-04
 Reference value :  1.76004e-04
 Reference value :  1.76004e-04
 Reference value :  1.76005e-04
 Reference value :  1.76006e-04
 Reference value :  1.76007e-04
 Reference value :  1.76008e-04
 Reference value :  1.76009e-04
 Reference value :  1.76010e-04
 Reference value :  1.76011e-04
 Reference value :  1.76012e-04
 Reference value :  1.76014e-04
 Reference value :  1.76016e-04
 Reference value :  1.76018e-04
 Reference value :  1.76021e-04
 Reference value :  1.76022e-04
 Reference value :  1.76024e-04
 Reference value :  1.76026e-04
 Reference value :  1.76028e-04
 Reference value :  1.76030e-04
 Reference value :  1.76032e-04
 Reference value :  1.76034e-04
 Reference value :  1.76039e-04
 Reference value :  1.76046e-04
 Reference value :  1.76052e-04
 Reference value :  1.76059e-04
 Reference value :  1.76065e-04
 Reference value :  1.76071e-04
 Reference value :  1.76078e-04
 Reference value :  1.76085e-04
 Reference value :  1.76093e-04
 Reference value :  1.76101e-04
 Reference value :  1.76117e-04
 Reference value :  1.76141e-04
 Reference value :  1.76178e-04
 Reference value :  1.76223e-04
 Reference value :  1.76250e-04
 Reference value :  1.76250e-04
 Reference value :  1.76250e-04
 Reference value :  1.76250e-04
 Reference value :  1.76250e-04
 Reference value :  1.76250e-04
 Reference value :  1.76250e-04
 Reference value :  1.76250e-04
 Reference value :  1.76250e-04
 Reference value :  1.76250e-04
 Reference value :  1.76250e-04
 Reference value :  1.76250e-04
 Reference value :  1.76250e-04
 Reference value :  1.76251e-04
 Reference value :  1.76251e-04
 Reference value :  1.76251e-04
 Reference value :  1.76252e-04
 Reference value :  1.76252e-04
 Reference value :  1.76253e-04
 Reference value :  1.76254e-04
 Reference value :  1.76255e-04
 Reference value :  1.76256e-04
 Reference value :  1.76257e-04
 Reference value :  1.76258e-04
 Reference value :  1.76260e-04
 Reference value :  1.76261e-04
 Reference value :  1.76264e-04
 Reference value :  1.76267e-04
 Reference value :  1.76272e-04
 Reference value :  1.76278e-04
 Reference value :  1.76285e-04
 Reference value :  1.76299e-04
 Reference value :  1.76316e-04
 Reference value :  1.76332e-04
 Reference value :  1.76350e-04
 Reference value :  1.76381e-04
 Reference value :  1.76443e-04
 Reference value :  1.76500e-04
 Reference value :  1.76500e-04
 Reference value :  1.76500e-04
 Reference value :  1.76500e-04
 Reference value :  1.76500e-04
 Reference value :  1.76500e-04
 Reference value :  1.76500e-04
 Reference value :  1.76500e-04
 Reference value :  1.76500e-04
 Reference value :  1.76500e-04
 Reference value :  1.76500e-04
 Reference value :  1.76501e-04
 Reference value :  1.76501e-04
 Reference value :  1.76501e-04
 Reference value :  1.76502e-04
 Reference value :  1.76503e-04
 Reference value :  1.76504e-04
 Reference value :  1.76504e-04
 Reference value :  1.76505e-04
 Reference value :  1.76506e-04
 Reference value :  1.76507e-04
 Reference value :  1.76509e-04
 Reference value :  1.76510e-04
 Reference value :  1.76511e-04
 Reference value :  1.76513e-04
 Reference value :  1.76514e-04
 Reference value :  1.76515e-04
 Reference value :  1.76517e-04
 Reference value :  1.76519e-04
 Reference value :  1.76522e-04
 Reference value :  1.76529e-04
 Reference value :  1.76541e-04
 Reference value :  1.76564e-04
 Reference value :  1.76607e-04
 Reference value :  1.76687e-04
 Reference value :  1.76750e-04
 Reference value :  1.76750e-04
 Reference value :  1.76750e-04
 Reference value :  1.76750e-04
 Reference value :  1.76750e-04
 Reference value :  1.76750e-04
 Reference value :  1.76750e-04
 Reference value :  1.76750e-04
 Reference value :  1.76750e-04
 Reference value :  1.76750e-04
 Reference value :  1.76750e-04
 Reference value :  1.76750e-04
 Reference value :  1.76750e-04
 Reference value :  1.76751e-04
 Reference value :  1.76751e-04
 Reference value :  1.76751e-04
 Reference value :  1.76752e-04
 Reference value :  1.76752e-04
 Reference value :  1.76753e-04
 Reference value :  1.76754e-04
 Reference value :  1.76755e-04
 Reference value :  1.76756e-04
 Reference value :  1.76757e-04
 Reference value :  1.76758e-04
 Reference value :  1.76759e-04
 Reference value :  1.76761e-04
 Reference value :  1.76763e-04
 Reference value :  1.76766e-04
 Reference value :  1.76770e-04
 Reference value :  1.76779e-04
 Reference value :  1.76796e-04
 Reference value :  1.76829e-04
 Reference value :  1.76895e-04
 Reference value :  1.77000e-04
 Reference value :  1.77000e-04
 Reference value :  1.77000e-04
 Reference value :  1.77000e-04
 Reference value :  1.77000e-04
 Reference value :  1.77000e-04
 Reference value :  1.77000e-04
 Reference value :  1.77000e-04
 Reference value :  1.77000e-04
 Reference value :  1.77000e-04
 Reference value :  1.77000e-04
 Reference value :  1.77001e-04
 Reference value :  1.77001e-04
 Reference value :  1.77001e-04
 Reference value :  1.77002e-04
 Reference value :  1.77003e-04
 Reference value :  1.77004e-04
 Reference value :  1.77004e-04
 Reference value :  1.77005e-04
 Reference value :  1.77006e-04
 Reference value :  1.77007e-04
 Reference value :  1.77008e-04
 Reference value :  1.77009e-04
 Reference value :  1.77010e-04
 Reference value :  1.77011e-04
 Reference value :  1.77012e-04
 Reference value :  1.77014e-04
 Reference value :  1.77016e-04
 Reference value :  1.77018e-04
 Reference value :  1.77021e-04
 Reference value :  1.77022e-04
 Reference value :  1.77024e-04
 Reference value :  1.77026e-04
 Reference value :  1.77028e-04
 Reference value :  1.77029e-04
 Reference value :  1.77032e-04
 Reference value :  1.77034e-04
 Reference value :  1.77038e-04
 Reference value :  1.77042e-04
 Reference value :  1.77048e-04
 Reference value :  1.77053e-04
 Reference value :  1.77057e-04
 Reference value :  1.77061e-04
 Reference value :  1.77066e-04
 Reference value :  1.77071e-04
 Reference value :  1.77079e-04
 Reference value :  1.77089e-04
 Reference value :  1.77098e-04
 Reference value :  1.77111e-04
 Reference value :  1.77134e-04
 Reference value :  1.77164e-04
 Reference value :  1.77219e-04
 Reference value :  1.77250e-04
 Reference value :  1.77250e-04
 Reference value :  1.77250e-04
 Reference value :  1.77250e-04
 Reference value :  1.77250e-04
 Reference value :  1.77250e-04
 Reference value :  1.77250e-04
 Reference value :  1.77250e-04
 Reference value :  1.77250e-04
 Reference value :  1.77250e-04
 Reference value :  1.77250e-04
 Reference value :  1.77250e-04
 Reference value :  1.77250e-04
 Reference value :  1.77251e-04
 Reference value :  1.77251e-04
 Reference value :  1.77251e-04
 Reference value :  1.77252e-04
 Reference value :  1.77252e-04
 Reference value :  1.77253e-04
 Reference value :  1.77254e-04
 Reference value :  1.77255e-04
 Reference value :  1.77256e-04
 Reference value :  1.77257e-04
 Reference value :  1.77258e-04
 Reference value :  1.77260e-04
 Reference value :  1.77262e-04
 Reference value :  1.77264e-04
 Reference value :  1.77267e-04
 Reference value :  1.77273e-04
 Reference value :  1.77284e-04
 Reference value :  1.77304e-04
 Reference value :  1.77341e-04
 Reference value :  1.77411e-04
 Reference value :  1.77500e-04
 Reference value :  1.77500e-04
 Reference value :  1.77500e-04
 Reference value :  1.77500e-04
 Reference value :  1.77500e-04
 Reference value :  1.77500e-04
 Reference value :  1.77500e-04
 Reference value :  1.77500e-04
 Reference value :  1.77500e-04
 Reference value :  1.77500e-04
 Reference value :  1.77500e-04
 Reference value :  1.77501e-04
 Reference value :  1.77501e-04
 Reference value :  1.77501e-04
 Reference value :  1.77502e-04
 Reference value :  1.77503e-04
 Reference value :  1.77503e-04
 Reference value :  1.77504e-04
 Reference value :  1.77505e-04
 Reference value :  1.77506e-04
 Reference value :  1.77507e-04
 Reference value :  1.77508e-04
 Reference value :  1.77510e-04
 Reference value :  1.77511e-04
 Reference value :  1.77512e-04
 Reference value :  1.77514e-04
 Reference value :  1.77515e-04
 Reference value :  1.77517e-04
 Reference value :  1.77519e-04
 Reference value :  1.77522e-04
 Reference value :  1.77527e-04
 Reference value :  1.77536e-04
 Reference value :  1.77552e-04
 Reference value :  1.77581e-04
 Reference value :  1.77637e-04
 Reference value :  1.77738e-04
 Reference value :  1.77750e-04
 Reference value :  1.77750e-04
 Reference value :  1.77750e-04
 Reference value :  1.77750e-04
 Reference value :  1.77750e-04
 Reference value :  1.77750e-04
 Reference value :  1.77750e-04
 Reference value :  1.77750e-04
 Reference value :  1.77750e-04
 Reference value :  1.77750e-04
 Reference value :  1.77750e-04
 Reference value :  1.77750e-04
 Reference value :  1.77750e-04
 Reference value :  1.77751e-04
 Reference value :  1.77751e-04
 Reference value :  1.77751e-04
 Reference value :  1.77752e-04
 Reference value :  1.77752e-04
 Reference value :  1.77753e-04
 Reference value :  1.77754e-04
 Reference value :  1.77755e-04
 Reference value :  1.77756e-04
 Reference value :  1.77757e-04
 Reference value :  1.77758e-04
 Reference value :  1.77759e-04
 Reference value :  1.77761e-04
 Reference value :  1.77762e-04
 Reference value :  1.77763e-04
 Reference value :  1.77765e-04
 Reference value :  1.77768e-04
 Reference value :  1.77771e-04
 Reference value :  1.77777e-04
 Reference value :  1.77789e-04
 Reference value :  1.77812e-04
 Reference value :  1.77854e-04
 Reference value :  1.77940e-04
 Reference value :  1.78000e-04
 Reference value :  1.78000e-04
 Reference value :  1.78000e-04
 Reference value :  1.78000e-04
 Reference value :  1.78000e-04
 Reference value :  1.78000e-04
 Reference value :  1.78000e-04
 Reference value :  1.78000e-04
 Reference value :  1.78000e-04
 Reference value :  1.78000e-04
 Reference value :  1.78000e-04
 Reference value :  1.78001e-04
 Reference value :  1.78001e-04
 Reference value :  1.78001e-04
 Reference value :  1.78002e-04
 Reference value :  1.78003e-04
 Reference value :  1.78003e-04
 Reference value :  1.78004e-04
 Reference value :  1.78005e-04
 Reference value :  1.78006e-04
 Reference value :  1.78007e-04
 Reference value :  1.78008e-04
 Reference value :  1.78009e-04
 Reference value :  1.78010e-04
 Reference value :  1.78011e-04
 Reference value :  1.78012e-04
 Reference value :  1.78014e-04
 Reference value :  1.78015e-04
 Reference value :  1.78017e-04
 Reference value :  1.78018e-04
 Reference value :  1.78020e-04
 Reference value :  1.78022e-04
 Reference value :  1.78024e-04
 Reference value :  1.78027e-04
 Reference value :  1.78030e-04
 Reference value :  1.78034e-04
 Reference value :  1.78037e-04
 Reference value :  1.78040e-04
 Reference value :  1.78043e-04
 Reference value :  1.78048e-04
 Reference value :  1.78052e-04
 Reference value :  1.78060e-04
 Reference value :  1.78074e-04
 Reference value :  1.78096e-04
 Reference value :  1.78136e-04
 Reference value :  1.78205e-04
 Reference value :  1.78250e-04
 Reference value :  1.78250e-04
 Reference value :  1.78250e-04
 Reference value :  1.78250e-04
 Reference value :  1.78250e-04
 Reference value :  1.78250e-04
 Reference value :  1.78250e-04
 Reference value :  1.78250e-04
 Reference value :  1.78250e-04
 Reference value :  1.78250e-04
 Reference value :  1.78250e-04
 Reference value :  1.78250e-04
 Reference value :  1.78250e-04
 Reference value :  1.78251e-04
 Reference value :  1.78251e-04
 Reference value :  1.78251e-04
 Reference value :  1.78252e-04
 Reference value :  1.78252e-04
 Reference value :  1.78253e-04
 Reference value :  1.78254e-04
 Reference value :  1.78255e-04
 Reference value :  1.78256e-04
 Reference value :  1.78258e-04
 Reference value :  1.78259e-04
 Reference value :  1.78261e-04
 Reference value :  1.78264e-04
 Reference value :  1.78267e-04
 Reference value :  1.78272e-04
 Reference value :  1.78282e-04
 Reference value :  1.78298e-04
 Reference value :  1.78330e-04
 Reference value :  1.78385e-04
 Reference value :  1.78494e-04
 Reference value :  1.78500e-04
No. of Data Rows : 27255
ngspice-44 done
