
Note: Compatibility modes selected: hs a


Circuit: ** sch_path: /home/ece/cace/sar-adc-using-sky130-pdk/runs/run_2025-10-12_03-34-20/parameters/dnl/run_0/sar_output_dnl.sch

option SCALE: Scale is set to 1e-06 for instance and model parameters
option SCALE: Scale is set to 1e-06 for instance and model parameters
option SCALE: Scale is set to 1e-06 for instance and model parameters
option SCALE: Scale is set to 1e-06 for instance and model parameters
Doing analysis at TEMP = -40.000000 and TNOM = 27.000000

Using KLU as Direct Linear Solver
Operating point simulation skipped by 'uic',
  now using transient initial conditions.
 Reference value :  1.00000e-12
 Reference value :  1.02772e-12
 Reference value :  1.08316e-12
 Reference value :  1.19404e-12
 Reference value :  1.33848e-12
 Reference value :  1.62736e-12
 Reference value :  2.20511e-12
 Reference value :  3.05288e-12
 Reference value :  3.95929e-12
 Reference value :  5.17631e-12
 Reference value :  6.90621e-12
 Reference value :  1.00713e-11
 Reference value :  1.35918e-11
 Reference value :  2.04994e-11
 Reference value :  2.72031e-11
 Reference value :  3.62975e-11
 Reference value :  4.74513e-11
 Reference value :  6.32422e-11
 Reference value :  8.36273e-11
 Reference value :  1.00000e-10
 Reference value :  1.01343e-10
 Reference value :  1.04029e-10
 Reference value :  1.09402e-10
 Reference value :  1.20146e-10
 Reference value :  1.41635e-10
 Reference value :  1.84614e-10
 Reference value :  2.70570e-10
 Reference value :  4.22122e-10
 Reference value :  5.94748e-10
 Reference value :  8.69530e-10
 Reference value :  1.25627e-09
 Reference value :  1.64202e-09
 Reference value :  2.23840e-09
 Reference value :  2.86298e-09
 Reference value :  3.65524e-09
 Reference value :  4.47634e-09
 Reference value :  5.30592e-09
 Reference value :  6.18849e-09
 Reference value :  7.15272e-09
 Reference value :  8.29235e-09
 Reference value :  9.48567e-09
 Reference value :  1.06948e-08
 Reference value :  1.15476e-08
 Reference value :  1.23356e-08
 Reference value :  1.31966e-08
 Reference value :  1.41244e-08
 Reference value :  1.57965e-08
 Reference value :  1.79321e-08
 Reference value :  2.16749e-08
 Reference value :  2.54912e-08
 Reference value :  2.90793e-08
 Reference value :  3.23786e-08
 Reference value :  3.63907e-08
 Reference value :  4.03869e-08
 Reference value :  4.43002e-08
 Reference value :  5.16794e-08
 Reference value :  6.09741e-08
 Reference value :  7.70009e-08
 Reference value :  1.05450e-07
 Reference value :  1.50390e-07
 Reference value :  2.32718e-07
 Reference value :  2.50100e-07
 Reference value :  2.50110e-07
 Reference value :  2.50130e-07
 Reference value :  2.50170e-07
 Reference value :  2.50200e-07
 Reference value :  2.50201e-07
 Reference value :  2.50202e-07
 Reference value :  2.50204e-07
 Reference value :  2.50208e-07
 Reference value :  2.50218e-07
 Reference value :  2.50236e-07
 Reference value :  2.50272e-07
 Reference value :  2.50344e-07
 Reference value :  2.50442e-07
 Reference value :  2.50590e-07
 Reference value :  2.50768e-07
 Reference value :  2.51116e-07
 Reference value :  2.51468e-07
 Reference value :  2.51962e-07
 Reference value :  2.52480e-07
 Reference value :  2.53132e-07
 Reference value :  2.53954e-07
 Reference value :  2.54691e-07
 Reference value :  2.55501e-07
 Reference value :  2.56244e-07
 Reference value :  2.57086e-07
 Reference value :  2.57927e-07
 Reference value :  2.59154e-07
 Reference value :  2.61108e-07
 Reference value :  2.63028e-07
 Reference value :  2.66394e-07
 Reference value :  2.71051e-07
 Reference value :  2.80364e-07
 Reference value :  2.98990e-07
 Reference value :  3.36242e-07
 Reference value :  4.10746e-07
 Reference value :  4.65713e-07
 Reference value :  5.00000e-07
 Reference value :  5.00010e-07
 Reference value :  5.00030e-07
 Reference value :  5.00070e-07
 Reference value :  5.00100e-07
 Reference value :  5.00104e-07
 Reference value :  5.00113e-07
 Reference value :  5.00130e-07
 Reference value :  5.00165e-07
 Reference value :  5.00234e-07
 Reference value :  5.00363e-07
 Reference value :  5.00574e-07
 Reference value :  5.00997e-07
 Reference value :  5.01494e-07
 Reference value :  5.02022e-07
 Reference value :  5.02524e-07
 Reference value :  5.03120e-07
 Reference value :  5.03735e-07
 Reference value :  5.04459e-07
 Reference value :  5.05269e-07
 Reference value :  5.06052e-07
 Reference value :  5.07160e-07
 Reference value :  5.08399e-07
 Reference value :  5.10006e-07
 Reference value :  5.12002e-07
 Reference value :  5.13457e-07
 Reference value :  5.15084e-07
 Reference value :  5.16744e-07
 Reference value :  5.18366e-07
 Reference value :  5.20051e-07
 Reference value :  5.22663e-07
 Reference value :  5.25161e-07
 Reference value :  5.29607e-07
 Reference value :  5.34948e-07
 Reference value :  5.40112e-07
 Reference value :  5.45234e-07
 Reference value :  5.50485e-07
 Reference value :  5.60987e-07
 Reference value :  5.81982e-07
 Reference value :  6.13571e-07
 Reference value :  6.76748e-07
 Reference value :  7.50100e-07
 Reference value :  7.50110e-07
 Reference value :  7.50130e-07
 Reference value :  7.50170e-07
 Reference value :  7.50200e-07
 Reference value :  7.50201e-07
 Reference value :  7.50202e-07
 Reference value :  7.50206e-07
 Reference value :  7.50212e-07
 Reference value :  7.50226e-07
 Reference value :  7.50252e-07
 Reference value :  7.50305e-07
 Reference value :  7.50411e-07
 Reference value :  7.50623e-07
 Reference value :  7.50979e-07
 Reference value :  7.51355e-07
 Reference value :  7.51837e-07
 Reference value :  7.52370e-07
 Reference value :  7.53092e-07
 Reference value :  7.53940e-07
 Reference value :  7.54710e-07
 Reference value :  7.55592e-07
 Reference value :  7.56360e-07
 Reference value :  7.57165e-07
 Reference value :  7.58055e-07
 Reference value :  7.59056e-07
 Reference value :  7.60108e-07
 Reference value :  7.61434e-07
 Reference value :  7.63159e-07
 Reference value :  7.65215e-07
 Reference value :  7.68038e-07
 Reference value :  7.71962e-07
 Reference value :  7.79809e-07
 Reference value :  7.92547e-07
 Reference value :  8.16783e-07
 Reference value :  8.65255e-07
 Reference value :  9.62201e-07
 Reference value :  1.00000e-06
 Reference value :  1.00001e-06
 Reference value :  1.00003e-06
 Reference value :  1.00007e-06
 Reference value :  1.00010e-06
 Reference value :  1.00010e-06
 Reference value :  1.00011e-06
 Reference value :  1.00013e-06
 Reference value :  1.00017e-06
 Reference value :  1.00023e-06
 Reference value :  1.00036e-06
 Reference value :  1.00058e-06
 Reference value :  1.00100e-06
 Reference value :  1.00150e-06
 Reference value :  1.00203e-06
 Reference value :  1.00254e-06
 Reference value :  1.00314e-06
 Reference value :  1.00371e-06
 Reference value :  1.00450e-06
 Reference value :  1.00523e-06
 Reference value :  1.00594e-06
 Reference value :  1.00680e-06
 Reference value :  1.00769e-06
 Reference value :  1.00851e-06
 Reference value :  1.00939e-06
 Reference value :  1.01049e-06
 Reference value :  1.01199e-06
 Reference value :  1.01394e-06
 Reference value :  1.01528e-06
 Reference value :  1.01678e-06
 Reference value :  1.01821e-06
 Reference value :  1.01962e-06
 Reference value :  1.02066e-06
 Reference value :  1.02178e-06
 Reference value :  1.02314e-06
 Reference value :  1.02463e-06
 Reference value :  1.02613e-06
 Reference value :  1.02847e-06
 Reference value :  1.03094e-06
 Reference value :  1.03588e-06
 Reference value :  1.04340e-06
 Reference value :  1.05562e-06
 Reference value :  1.07312e-06
 Reference value :  1.08970e-06
 Reference value :  1.10633e-06
 Reference value :  1.11846e-06
 Reference value :  1.12612e-06
 Reference value :  1.13198e-06
 Reference value :  1.13845e-06
 Reference value :  1.14928e-06
 Reference value :  1.16357e-06
 Reference value :  1.18442e-06
 Reference value :  1.21704e-06
 Reference value :  1.25010e-06
 Reference value :  1.25011e-06
 Reference value :  1.25013e-06
 Reference value :  1.25017e-06
 Reference value :  1.25020e-06
 Reference value :  1.25020e-06
 Reference value :  1.25020e-06
 Reference value :  1.25021e-06
 Reference value :  1.25021e-06
 Reference value :  1.25023e-06
 Reference value :  1.25025e-06
 Reference value :  1.25031e-06
 Reference value :  1.25041e-06
 Reference value :  1.25062e-06
 Reference value :  1.25098e-06
 Reference value :  1.25135e-06
 Reference value :  1.25182e-06
 Reference value :  1.25236e-06
 Reference value :  1.25304e-06
 Reference value :  1.25389e-06
 Reference value :  1.25469e-06
 Reference value :  1.25557e-06
 Reference value :  1.25645e-06
 Reference value :  1.25732e-06
 Reference value :  1.25881e-06
 Reference value :  1.26020e-06
 Reference value :  1.26233e-06
 Reference value :  1.26520e-06
 Reference value :  1.27003e-06
 Reference value :  1.27944e-06
 Reference value :  1.29401e-06
 Reference value :  1.32211e-06
 Reference value :  1.37008e-06
 Reference value :  1.43303e-06
 Reference value :  1.50000e-06
 Reference value :  1.50001e-06
 Reference value :  1.50003e-06
 Reference value :  1.50007e-06
 Reference value :  1.50010e-06
 Reference value :  1.50010e-06
 Reference value :  1.50011e-06
 Reference value :  1.50013e-06
 Reference value :  1.50016e-06
 Reference value :  1.50023e-06
 Reference value :  1.50036e-06
 Reference value :  1.50056e-06
 Reference value :  1.50096e-06
 Reference value :  1.50145e-06
 Reference value :  1.50198e-06
 Reference value :  1.50248e-06
 Reference value :  1.50302e-06
 Reference value :  1.50358e-06
 Reference value :  1.50434e-06
 Reference value :  1.50504e-06
 Reference value :  1.50592e-06
 Reference value :  1.50695e-06
 Reference value :  1.50809e-06
 Reference value :  1.50951e-06
 Reference value :  1.51064e-06
 Reference value :  1.51185e-06
 Reference value :  1.51292e-06
 Reference value :  1.51418e-06
 Reference value :  1.51543e-06
 Reference value :  1.51688e-06
 Reference value :  1.51977e-06
 Reference value :  1.52497e-06
 Reference value :  1.53415e-06
 Reference value :  1.55252e-06
 Reference value :  1.58743e-06
 Reference value :  1.65535e-06
 Reference value :  1.75010e-06
 Reference value :  1.75011e-06
 Reference value :  1.75013e-06
 Reference value :  1.75017e-06
 Reference value :  1.75020e-06
 Reference value :  1.75020e-06
 Reference value :  1.75020e-06
 Reference value :  1.75021e-06
 Reference value :  1.75021e-06
 Reference value :  1.75023e-06
 Reference value :  1.75025e-06
 Reference value :  1.75030e-06
 Reference value :  1.75041e-06
 Reference value :  1.75062e-06
 Reference value :  1.75097e-06
 Reference value :  1.75134e-06
 Reference value :  1.75181e-06
 Reference value :  1.75234e-06
 Reference value :  1.75304e-06
 Reference value :  1.75386e-06
 Reference value :  1.75464e-06
 Reference value :  1.75553e-06
 Reference value :  1.75638e-06
 Reference value :  1.75717e-06
 Reference value :  1.75807e-06
 Reference value :  1.75909e-06
 Reference value :  1.76096e-06
 Reference value :  1.76349e-06
 Reference value :  1.76682e-06
 Reference value :  1.77347e-06
 Reference value :  1.78678e-06
 Reference value :  1.80939e-06
 Reference value :  1.85460e-06
 Reference value :  1.94502e-06
 Reference value :  2.00000e-06
 Reference value :  2.00001e-06
 Reference value :  2.00003e-06
 Reference value :  2.00007e-06
 Reference value :  2.00010e-06
 Reference value :  2.00010e-06
 Reference value :  2.00011e-06
 Reference value :  2.00013e-06
 Reference value :  2.00016e-06
 Reference value :  2.00023e-06
 Reference value :  2.00036e-06
 Reference value :  2.00056e-06
 Reference value :  2.00096e-06
 Reference value :  2.00145e-06
 Reference value :  2.00198e-06
 Reference value :  2.00248e-06
 Reference value :  2.00302e-06
 Reference value :  2.00358e-06
 Reference value :  2.00427e-06
 Reference value :  2.00499e-06
 Reference value :  2.00581e-06
 Reference value :  2.00655e-06
 Reference value :  2.00764e-06
 Reference value :  2.00849e-06
 Reference value :  2.00943e-06
 Reference value :  2.01081e-06
 Reference value :  2.01210e-06
 Reference value :  2.01407e-06
 Reference value :  2.01612e-06
 Reference value :  2.01794e-06
 Reference value :  2.01946e-06
 Reference value :  2.02099e-06
 Reference value :  2.02253e-06
 Reference value :  2.02412e-06
 Reference value :  2.02590e-06
 Reference value :  2.02772e-06
 Reference value :  2.02998e-06
 Reference value :  2.03345e-06
 Reference value :  2.03839e-06
 Reference value :  2.04668e-06
 Reference value :  2.06021e-06
 Reference value :  2.08208e-06
 Reference value :  2.10853e-06
 Reference value :  2.16003e-06
 Reference value :  2.22567e-06
 Reference value :  2.25010e-06
 Reference value :  2.25011e-06
 Reference value :  2.25013e-06
 Reference value :  2.25017e-06
 Reference value :  2.25020e-06
 Reference value :  2.25020e-06
 Reference value :  2.25020e-06
 Reference value :  2.25021e-06
 Reference value :  2.25021e-06
 Reference value :  2.25023e-06
 Reference value :  2.25025e-06
 Reference value :  2.25031e-06
 Reference value :  2.25041e-06
 Reference value :  2.25062e-06
 Reference value :  2.25098e-06
 Reference value :  2.25135e-06
 Reference value :  2.25182e-06
 Reference value :  2.25236e-06
 Reference value :  2.25305e-06
 Reference value :  2.25388e-06
 Reference value :  2.25468e-06
 Reference value :  2.25556e-06
 Reference value :  2.25642e-06
 Reference value :  2.25730e-06
 Reference value :  2.25876e-06
 Reference value :  2.26013e-06
 Reference value :  2.26226e-06
 Reference value :  2.26510e-06
 Reference value :  2.26979e-06
 Reference value :  2.27918e-06
 Reference value :  2.29341e-06
 Reference value :  2.32117e-06
 Reference value :  2.36841e-06
 Reference value :  2.45233e-06
 Reference value :  2.50000e-06
 Reference value :  2.50001e-06
 Reference value :  2.50003e-06
 Reference value :  2.50007e-06
 Reference value :  2.50010e-06
 Reference value :  2.50010e-06
 Reference value :  2.50011e-06
 Reference value :  2.50013e-06
 Reference value :  2.50016e-06
 Reference value :  2.50023e-06
 Reference value :  2.50036e-06
 Reference value :  2.50056e-06
 Reference value :  2.50096e-06
 Reference value :  2.50145e-06
 Reference value :  2.50198e-06
 Reference value :  2.50248e-06
 Reference value :  2.50302e-06
 Reference value :  2.50358e-06
 Reference value :  2.50434e-06
 Reference value :  2.50504e-06
 Reference value :  2.50592e-06
 Reference value :  2.50695e-06
 Reference value :  2.50810e-06
 Reference value :  2.50955e-06
 Reference value :  2.51072e-06
 Reference value :  2.51196e-06
 Reference value :  2.51303e-06
 Reference value :  2.51427e-06
 Reference value :  2.51551e-06
 Reference value :  2.51696e-06
 Reference value :  2.51988e-06
 Reference value :  2.52458e-06
 Reference value :  2.53398e-06
 Reference value :  2.55199e-06
 Reference value :  2.58618e-06
 Reference value :  2.65456e-06
 Reference value :  2.75010e-06
 Reference value :  2.75011e-06
 Reference value :  2.75013e-06
 Reference value :  2.75017e-06
 Reference value :  2.75020e-06
 Reference value :  2.75020e-06
 Reference value :  2.75020e-06
 Reference value :  2.75021e-06
 Reference value :  2.75021e-06
 Reference value :  2.75023e-06
 Reference value :  2.75025e-06
 Reference value :  2.75030e-06
 Reference value :  2.75041e-06
 Reference value :  2.75062e-06
 Reference value :  2.75097e-06
 Reference value :  2.75134e-06
 Reference value :  2.75181e-06
 Reference value :  2.75234e-06
 Reference value :  2.75304e-06
 Reference value :  2.75386e-06
 Reference value :  2.75464e-06
 Reference value :  2.75552e-06
 Reference value :  2.75637e-06
 Reference value :  2.75716e-06
 Reference value :  2.75805e-06
 Reference value :  2.75907e-06
 Reference value :  2.76093e-06
 Reference value :  2.76346e-06
 Reference value :  2.76677e-06
 Reference value :  2.77339e-06
 Reference value :  2.78662e-06
 Reference value :  2.80900e-06
 Reference value :  2.85377e-06
 Reference value :  2.94331e-06
 Reference value :  3.00000e-06
 Reference value :  3.00001e-06
 Reference value :  3.00003e-06
 Reference value :  3.00007e-06
 Reference value :  3.00010e-06
 Reference value :  3.00010e-06
 Reference value :  3.00011e-06
 Reference value :  3.00013e-06
 Reference value :  3.00016e-06
 Reference value :  3.00023e-06
 Reference value :  3.00036e-06
 Reference value :  3.00056e-06
 Reference value :  3.00096e-06
 Reference value :  3.00145e-06
 Reference value :  3.00198e-06
 Reference value :  3.00248e-06
 Reference value :  3.00302e-06
 Reference value :  3.00358e-06
 Reference value :  3.00427e-06
 Reference value :  3.00498e-06
 Reference value :  3.00574e-06
 Reference value :  3.00650e-06
 Reference value :  3.00755e-06
 Reference value :  3.00841e-06
 Reference value :  3.00931e-06
 Reference value :  3.01054e-06
 Reference value :  3.01184e-06
 Reference value :  3.01371e-06
 Reference value :  3.01589e-06
 Reference value :  3.01789e-06
 Reference value :  3.01938e-06
 Reference value :  3.02082e-06
 Reference value :  3.02239e-06
 Reference value :  3.02390e-06
 Reference value :  3.02559e-06
 Reference value :  3.02733e-06
 Reference value :  3.02977e-06
 Reference value :  3.03317e-06
 Reference value :  3.03825e-06
 Reference value :  3.04731e-06
 Reference value :  3.06095e-06
 Reference value :  3.08127e-06
 Reference value :  3.10275e-06
 Reference value :  3.11809e-06
 Reference value :  3.13010e-06
 Reference value :  3.14174e-06
 Reference value :  3.15379e-06
 Reference value :  3.16283e-06
 Reference value :  3.17339e-06
 Reference value :  3.18307e-06
 Reference value :  3.20085e-06
 Reference value :  3.22519e-06
 Reference value :  3.25010e-06
 Reference value :  3.25011e-06
 Reference value :  3.25013e-06
 Reference value :  3.25017e-06
 Reference value :  3.25020e-06
 Reference value :  3.25020e-06
 Reference value :  3.25020e-06
 Reference value :  3.25021e-06
 Reference value :  3.25021e-06
 Reference value :  3.25023e-06
 Reference value :  3.25025e-06
 Reference value :  3.25030e-06
 Reference value :  3.25041e-06
 Reference value :  3.25062e-06
 Reference value :  3.25097e-06
 Reference value :  3.25134e-06
 Reference value :  3.25181e-06
 Reference value :  3.25234e-06
 Reference value :  3.25304e-06
 Reference value :  3.25386e-06
 Reference value :  3.25459e-06
 Reference value :  3.25542e-06
 Reference value :  3.25622e-06
 Reference value :  3.25704e-06
 Reference value :  3.25827e-06
 Reference value :  3.25953e-06
 Reference value :  3.26153e-06
 Reference value :  3.26419e-06
 Reference value :  3.26781e-06
 Reference value :  3.27505e-06
 Reference value :  3.28857e-06
 Reference value :  3.31187e-06
 Reference value :  3.35799e-06
 Reference value :  3.45023e-06
 Reference value :  3.50000e-06
 Reference value :  3.50001e-06
 Reference value :  3.50003e-06
 Reference value :  3.50007e-06
 Reference value :  3.50010e-06
 Reference value :  3.50010e-06
 Reference value :  3.50011e-06
 Reference value :  3.50013e-06
 Reference value :  3.50016e-06
 Reference value :  3.50023e-06
 Reference value :  3.50036e-06
 Reference value :  3.50056e-06
 Reference value :  3.50096e-06
 Reference value :  3.50145e-06
 Reference value :  3.50198e-06
 Reference value :  3.50245e-06
 Reference value :  3.50303e-06
 Reference value :  3.50356e-06
 Reference value :  3.50423e-06
 Reference value :  3.50494e-06
 Reference value :  3.50570e-06
 Reference value :  3.50677e-06
 Reference value :  3.50777e-06
 Reference value :  3.50927e-06
 Reference value :  3.51027e-06
 Reference value :  3.51142e-06
 Reference value :  3.51246e-06
 Reference value :  3.51370e-06
 Reference value :  3.51498e-06
 Reference value :  3.51639e-06
 Reference value :  3.51922e-06
 Reference value :  3.52474e-06
 Reference value :  3.53415e-06
 Reference value :  3.55298e-06
 Reference value :  3.59064e-06
 Reference value :  3.66595e-06
 Reference value :  3.75010e-06
 Reference value :  3.75011e-06
 Reference value :  3.75013e-06
 Reference value :  3.75017e-06
 Reference value :  3.75020e-06
 Reference value :  3.75020e-06
 Reference value :  3.75020e-06
 Reference value :  3.75021e-06
 Reference value :  3.75021e-06
 Reference value :  3.75023e-06
 Reference value :  3.75025e-06
 Reference value :  3.75030e-06
 Reference value :  3.75041e-06
 Reference value :  3.75062e-06
 Reference value :  3.75097e-06
 Reference value :  3.75134e-06
 Reference value :  3.75181e-06
 Reference value :  3.75234e-06
 Reference value :  3.75304e-06
 Reference value :  3.75386e-06
 Reference value :  3.75462e-06
 Reference value :  3.75550e-06
 Reference value :  3.75634e-06
 Reference value :  3.75712e-06
 Reference value :  3.75802e-06
 Reference value :  3.75903e-06
 Reference value :  3.76019e-06
 Reference value :  3.76142e-06
 Reference value :  3.76327e-06
 Reference value :  3.76527e-06
 Reference value :  3.76838e-06
 Reference value :  3.77275e-06
 Reference value :  3.78150e-06
 Reference value :  3.79899e-06
 Reference value :  3.82379e-06
 Reference value :  3.84218e-06
 Reference value :  3.85837e-06
 Reference value :  3.86821e-06
 Reference value :  3.87942e-06
 Reference value :  3.89040e-06
 Reference value :  3.90192e-06
 Reference value :  3.91584e-06
 Reference value :  3.93136e-06
 Reference value :  3.95106e-06
 Reference value :  3.97639e-06
 Reference value :  4.00000e-06
 Reference value :  4.00001e-06
 Reference value :  4.00003e-06
 Reference value :  4.00007e-06
 Reference value :  4.00010e-06
 Reference value :  4.00010e-06
 Reference value :  4.00011e-06
 Reference value :  4.00013e-06
 Reference value :  4.00017e-06
 Reference value :  4.00023e-06
 Reference value :  4.00036e-06
 Reference value :  4.00056e-06
 Reference value :  4.00096e-06
 Reference value :  4.00146e-06
 Reference value :  4.00199e-06
 Reference value :  4.00248e-06
 Reference value :  4.00303e-06
 Reference value :  4.00359e-06
 Reference value :  4.00433e-06
 Reference value :  4.00504e-06
 Reference value :  4.00588e-06
 Reference value :  4.00664e-06
 Reference value :  4.00754e-06
 Reference value :  4.00834e-06
 Reference value :  4.00921e-06
 Reference value :  4.01036e-06
 Reference value :  4.01175e-06
 Reference value :  4.01367e-06
 Reference value :  4.01585e-06
 Reference value :  4.01767e-06
 Reference value :  4.01911e-06
 Reference value :  4.02048e-06
 Reference value :  4.02196e-06
 Reference value :  4.02347e-06
 Reference value :  4.02493e-06
 Reference value :  4.02666e-06
 Reference value :  4.02914e-06
 Reference value :  4.03194e-06
 Reference value :  4.03657e-06
 Reference value :  4.04158e-06
 Reference value :  4.04479e-06
 Reference value :  4.04797e-06
 Reference value :  4.05126e-06
 Reference value :  4.05506e-06
 Reference value :  4.06199e-06
 Reference value :  4.07052e-06
 Reference value :  4.07903e-06
 Reference value :  4.08702e-06
 Reference value :  4.09659e-06
 Reference value :  4.11115e-06
 Reference value :  4.13149e-06
 Reference value :  4.16885e-06
 Reference value :  4.20892e-06
 Reference value :  4.25010e-06
 Reference value :  4.25011e-06
 Reference value :  4.25013e-06
 Reference value :  4.25017e-06
 Reference value :  4.25020e-06
 Reference value :  4.25020e-06
 Reference value :  4.25020e-06
 Reference value :  4.25021e-06
 Reference value :  4.25021e-06
 Reference value :  4.25023e-06
 Reference value :  4.25025e-06
 Reference value :  4.25031e-06
 Reference value :  4.25041e-06
 Reference value :  4.25062e-06
 Reference value :  4.25098e-06
 Reference value :  4.25135e-06
 Reference value :  4.25182e-06
 Reference value :  4.25236e-06
 Reference value :  4.25305e-06
 Reference value :  4.25388e-06
 Reference value :  4.25458e-06
 Reference value :  4.25539e-06
 Reference value :  4.25615e-06
 Reference value :  4.25695e-06
 Reference value :  4.25814e-06
 Reference value :  4.25937e-06
 Reference value :  4.26137e-06
 Reference value :  4.26394e-06
 Reference value :  4.26744e-06
 Reference value :  4.27443e-06
 Reference value :  4.28802e-06
 Reference value :  4.31113e-06
 Reference value :  4.35736e-06
 Reference value :  4.44982e-06
 Reference value :  4.50000e-06
 Reference value :  4.50001e-06
 Reference value :  4.50003e-06
 Reference value :  4.50007e-06
 Reference value :  4.50010e-06
 Reference value :  4.50010e-06
 Reference value :  4.50011e-06
 Reference value :  4.50013e-06
 Reference value :  4.50016e-06
 Reference value :  4.50023e-06
 Reference value :  4.50036e-06
 Reference value :  4.50056e-06
 Reference value :  4.50096e-06
 Reference value :  4.50145e-06
 Reference value :  4.50198e-06
 Reference value :  4.50245e-06
 Reference value :  4.50302e-06
 Reference value :  4.50356e-06
 Reference value :  4.50423e-06
 Reference value :  4.50494e-06
 Reference value :  4.50570e-06
 Reference value :  4.50677e-06
 Reference value :  4.50777e-06
 Reference value :  4.50916e-06
 Reference value :  4.51014e-06
 Reference value :  4.51124e-06
 Reference value :  4.51220e-06
 Reference value :  4.51337e-06
 Reference value :  4.51452e-06
 Reference value :  4.51588e-06
 Reference value :  4.51859e-06
 Reference value :  4.52397e-06
 Reference value :  4.53350e-06
 Reference value :  4.55257e-06
 Reference value :  4.59071e-06
 Reference value :  4.66698e-06
 Reference value :  4.75010e-06
 Reference value :  4.75011e-06
 Reference value :  4.75013e-06
 Reference value :  4.75017e-06
 Reference value :  4.75020e-06
 Reference value :  4.75020e-06
 Reference value :  4.75020e-06
 Reference value :  4.75021e-06
 Reference value :  4.75021e-06
 Reference value :  4.75023e-06
 Reference value :  4.75025e-06
 Reference value :  4.75030e-06
 Reference value :  4.75041e-06
 Reference value :  4.75062e-06
 Reference value :  4.75097e-06
 Reference value :  4.75134e-06
 Reference value :  4.75181e-06
 Reference value :  4.75234e-06
 Reference value :  4.75304e-06
 Reference value :  4.75386e-06
 Reference value :  4.75462e-06
 Reference value :  4.75549e-06
 Reference value :  4.75634e-06
 Reference value :  4.75712e-06
 Reference value :  4.75802e-06
 Reference value :  4.75903e-06
 Reference value :  4.76011e-06
 Reference value :  4.76140e-06
 Reference value :  4.76343e-06
 Reference value :  4.76536e-06
 Reference value :  4.76860e-06
 Reference value :  4.77276e-06
 Reference value :  4.78110e-06
 Reference value :  4.79777e-06
 Reference value :  4.82876e-06
 Reference value :  4.89075e-06
 Reference value :  5.00000e-06
 Reference value :  5.00001e-06
 Reference value :  5.00003e-06
 Reference value :  5.00007e-06
 Reference value :  5.00010e-06
 Reference value :  5.00010e-06
 Reference value :  5.00011e-06
 Reference value :  5.00013e-06
 Reference value :  5.00016e-06
 Reference value :  5.00023e-06
 Reference value :  5.00036e-06
 Reference value :  5.00056e-06
 Reference value :  5.00096e-06
 Reference value :  5.00145e-06
 Reference value :  5.00198e-06
 Reference value :  5.00247e-06
 Reference value :  5.00302e-06
 Reference value :  5.00358e-06
 Reference value :  5.00432e-06
 Reference value :  5.00499e-06
 Reference value :  5.00564e-06
 Reference value :  5.00632e-06
 Reference value :  5.00701e-06
 Reference value :  5.00768e-06
 Reference value :  5.00838e-06
 Reference value :  5.00931e-06
 Reference value :  5.01027e-06
 Reference value :  5.01192e-06
 Reference value :  5.01301e-06
 Reference value :  5.01423e-06
 Reference value :  5.01542e-06
 Reference value :  5.01687e-06
 Reference value :  5.01835e-06
 Reference value :  5.01945e-06
 Reference value :  5.02066e-06
 Reference value :  5.02184e-06
 Reference value :  5.02310e-06
 Reference value :  5.02458e-06
 Reference value :  5.02599e-06
 Reference value :  5.02836e-06
 Reference value :  5.03065e-06
 Reference value :  5.03523e-06
 Reference value :  5.04358e-06
 Reference value :  5.05379e-06
 Reference value :  5.06496e-06
 Reference value :  5.07526e-06
 Reference value :  5.08617e-06
 Reference value :  5.10338e-06
 Reference value :  5.11619e-06
 Reference value :  5.12861e-06
 Reference value :  5.13954e-06
 Reference value :  5.15123e-06
 Reference value :  5.17460e-06
 Reference value :  5.20915e-06
 Reference value :  5.25010e-06
 Reference value :  5.25011e-06
 Reference value :  5.25013e-06
 Reference value :  5.25017e-06
 Reference value :  5.25020e-06
 Reference value :  5.25020e-06
 Reference value :  5.25020e-06
 Reference value :  5.25021e-06
 Reference value :  5.25021e-06
 Reference value :  5.25023e-06
 Reference value :  5.25025e-06
 Reference value :  5.25030e-06
 Reference value :  5.25041e-06
 Reference value :  5.25062e-06
 Reference value :  5.25097e-06
 Reference value :  5.25134e-06
 Reference value :  5.25181e-06
 Reference value :  5.25234e-06
 Reference value :  5.25306e-06
 Reference value :  5.25387e-06
 Reference value :  5.25464e-06
 Reference value :  5.25550e-06
 Reference value :  5.25636e-06
 Reference value :  5.25721e-06
 Reference value :  5.25866e-06
 Reference value :  5.25998e-06
 Reference value :  5.26211e-06
 Reference value :  5.26488e-06
 Reference value :  5.26926e-06
 Reference value :  5.27803e-06
 Reference value :  5.29175e-06
 Reference value :  5.31784e-06
 Reference value :  5.36337e-06
 Reference value :  5.44796e-06
 Reference value :  5.50000e-06
 Reference value :  5.50001e-06
 Reference value :  5.50003e-06
 Reference value :  5.50007e-06
 Reference value :  5.50010e-06
 Reference value :  5.50010e-06
 Reference value :  5.50011e-06
 Reference value :  5.50013e-06
 Reference value :  5.50016e-06
 Reference value :  5.50023e-06
 Reference value :  5.50036e-06
 Reference value :  5.50056e-06
 Reference value :  5.50096e-06
 Reference value :  5.50146e-06
 Reference value :  5.50198e-06
 Reference value :  5.50245e-06
 Reference value :  5.50303e-06
 Reference value :  5.50356e-06
 Reference value :  5.50423e-06
 Reference value :  5.50495e-06
 Reference value :  5.50577e-06
 Reference value :  5.50683e-06
 Reference value :  5.50791e-06
 Reference value :  5.50924e-06
 Reference value :  5.51025e-06
 Reference value :  5.51136e-06
 Reference value :  5.51236e-06
 Reference value :  5.51351e-06
 Reference value :  5.51472e-06
 Reference value :  5.51612e-06
 Reference value :  5.51891e-06
 Reference value :  5.52331e-06
 Reference value :  5.53211e-06
 Reference value :  5.54971e-06
 Reference value :  5.58362e-06
 Reference value :  5.65146e-06
 Reference value :  5.75010e-06
 Reference value :  5.75011e-06
 Reference value :  5.75013e-06
 Reference value :  5.75017e-06
 Reference value :  5.75020e-06
 Reference value :  5.75020e-06
 Reference value :  5.75020e-06
 Reference value :  5.75021e-06
 Reference value :  5.75021e-06
 Reference value :  5.75023e-06
 Reference value :  5.75025e-06
 Reference value :  5.75030e-06
 Reference value :  5.75041e-06
 Reference value :  5.75062e-06
 Reference value :  5.75097e-06
 Reference value :  5.75134e-06
 Reference value :  5.75181e-06
 Reference value :  5.75234e-06
 Reference value :  5.75304e-06
 Reference value :  5.75386e-06
 Reference value :  5.75464e-06
 Reference value :  5.75552e-06
 Reference value :  5.75637e-06
 Reference value :  5.75716e-06
 Reference value :  5.75807e-06
 Reference value :  5.75909e-06
 Reference value :  5.76033e-06
 Reference value :  5.76154e-06
 Reference value :  5.76340e-06
 Reference value :  5.76546e-06
 Reference value :  5.76862e-06
 Reference value :  5.77325e-06
 Reference value :  5.78250e-06
 Reference value :  5.80101e-06
 Reference value :  5.83643e-06
 Reference value :  5.90727e-06
 Reference value :  6.00000e-06
 Reference value :  6.00001e-06
 Reference value :  6.00003e-06
 Reference value :  6.00007e-06
 Reference value :  6.00010e-06
 Reference value :  6.00010e-06
 Reference value :  6.00011e-06
 Reference value :  6.00013e-06
 Reference value :  6.00016e-06
 Reference value :  6.00023e-06
 Reference value :  6.00036e-06
 Reference value :  6.00056e-06
 Reference value :  6.00096e-06
 Reference value :  6.00145e-06
 Reference value :  6.00198e-06
 Reference value :  6.00248e-06
 Reference value :  6.00302e-06
 Reference value :  6.00358e-06
 Reference value :  6.00432e-06
 Reference value :  6.00499e-06
 Reference value :  6.00564e-06
 Reference value :  6.00632e-06
 Reference value :  6.00701e-06
 Reference value :  6.00776e-06
 Reference value :  6.00846e-06
 Reference value :  6.00946e-06
 Reference value :  6.01050e-06
 Reference value :  6.01197e-06
 Reference value :  6.01302e-06
 Reference value :  6.01419e-06
 Reference value :  6.01543e-06
 Reference value :  6.01676e-06
 Reference value :  6.01812e-06
 Reference value :  6.01912e-06
 Reference value :  6.02004e-06
 Reference value :  6.02113e-06
 Reference value :  6.02213e-06
 Reference value :  6.02318e-06
 Reference value :  6.02447e-06
 Reference value :  6.02589e-06
 Reference value :  6.02798e-06
 Reference value :  6.03078e-06
 Reference value :  6.03638e-06
 Reference value :  6.04155e-06
 Reference value :  6.04912e-06
 Reference value :  6.05793e-06
 Reference value :  6.06825e-06
 Reference value :  6.08872e-06
 Reference value :  6.12050e-06
 Reference value :  6.16943e-06
 Reference value :  6.19832e-06
 Reference value :  6.23231e-06
 Reference value :  6.25010e-06
 Reference value :  6.25011e-06
 Reference value :  6.25013e-06
 Reference value :  6.25017e-06
 Reference value :  6.25020e-06
 Reference value :  6.25020e-06
 Reference value :  6.25020e-06
 Reference value :  6.25021e-06
 Reference value :  6.25021e-06
 Reference value :  6.25023e-06
 Reference value :  6.25025e-06
 Reference value :  6.25030e-06
 Reference value :  6.25041e-06
 Reference value :  6.25062e-06
 Reference value :  6.25097e-06
 Reference value :  6.25134e-06
 Reference value :  6.25181e-06
 Reference value :  6.25234e-06
 Reference value :  6.25304e-06
 Reference value :  6.25386e-06
 Reference value :  6.25465e-06
 Reference value :  6.25551e-06
 Reference value :  6.25637e-06
 Reference value :  6.25722e-06
 Reference value :  6.25867e-06
 Reference value :  6.26001e-06
 Reference value :  6.26213e-06
 Reference value :  6.26492e-06
 Reference value :  6.26935e-06
 Reference value :  6.27819e-06
 Reference value :  6.29197e-06
 Reference value :  6.31821e-06
 Reference value :  6.36380e-06
 Reference value :  6.44441e-06
 Reference value :  6.50000e-06
 Reference value :  6.50001e-06
 Reference value :  6.50003e-06
 Reference value :  6.50007e-06
 Reference value :  6.50010e-06
 Reference value :  6.50010e-06
 Reference value :  6.50011e-06
 Reference value :  6.50013e-06
 Reference value :  6.50016e-06
 Reference value :  6.50023e-06
 Reference value :  6.50036e-06
 Reference value :  6.50056e-06
 Reference value :  6.50096e-06
 Reference value :  6.50145e-06
 Reference value :  6.50198e-06
 Reference value :  6.50245e-06
 Reference value :  6.50303e-06
 Reference value :  6.50356e-06
 Reference value :  6.50423e-06
 Reference value :  6.50495e-06
 Reference value :  6.50570e-06
 Reference value :  6.50678e-06
 Reference value :  6.50778e-06
 Reference value :  6.50928e-06
 Reference value :  6.51028e-06
 Reference value :  6.51143e-06
 Reference value :  6.51245e-06
 Reference value :  6.51363e-06
 Reference value :  6.51488e-06
 Reference value :  6.51631e-06
 Reference value :  6.51919e-06
 Reference value :  6.52353e-06
 Reference value :  6.53221e-06
 Reference value :  6.54958e-06
 Reference value :  6.58289e-06
 Reference value :  6.64952e-06
 Reference value :  6.75010e-06
 Reference value :  6.75011e-06
 Reference value :  6.75013e-06
 Reference value :  6.75017e-06
 Reference value :  6.75020e-06
 Reference value :  6.75020e-06
 Reference value :  6.75020e-06
 Reference value :  6.75021e-06
 Reference value :  6.75021e-06
 Reference value :  6.75023e-06
 Reference value :  6.75025e-06
 Reference value :  6.75030e-06
 Reference value :  6.75041e-06
 Reference value :  6.75062e-06
 Reference value :  6.75097e-06
 Reference value :  6.75134e-06
 Reference value :  6.75181e-06
 Reference value :  6.75234e-06
 Reference value :  6.75304e-06
 Reference value :  6.75386e-06
 Reference value :  6.75464e-06
 Reference value :  6.75552e-06
 Reference value :  6.75637e-06
 Reference value :  6.75715e-06
 Reference value :  6.75807e-06
 Reference value :  6.75908e-06
 Reference value :  6.76033e-06
 Reference value :  6.76154e-06
 Reference value :  6.76340e-06
 Reference value :  6.76546e-06
 Reference value :  6.76862e-06
 Reference value :  6.77324e-06
 Reference value :  6.78249e-06
 Reference value :  6.80098e-06
 Reference value :  6.83638e-06
 Reference value :  6.90717e-06
 Reference value :  7.00000e-06
 Reference value :  7.00001e-06
 Reference value :  7.00003e-06
 Reference value :  7.00007e-06
 Reference value :  7.00010e-06
 Reference value :  7.00010e-06
 Reference value :  7.00011e-06
 Reference value :  7.00013e-06
 Reference value :  7.00016e-06
 Reference value :  7.00023e-06
 Reference value :  7.00036e-06
 Reference value :  7.00056e-06
 Reference value :  7.00096e-06
 Reference value :  7.00145e-06
 Reference value :  7.00198e-06
 Reference value :  7.00248e-06
 Reference value :  7.00302e-06
 Reference value :  7.00358e-06
 Reference value :  7.00432e-06
 Reference value :  7.00499e-06
 Reference value :  7.00563e-06
 Reference value :  7.00631e-06
 Reference value :  7.00700e-06
 Reference value :  7.00775e-06
 Reference value :  7.00842e-06
 Reference value :  7.00937e-06
 Reference value :  7.01036e-06
 Reference value :  7.01186e-06
 Reference value :  7.01301e-06
 Reference value :  7.01427e-06
 Reference value :  7.01553e-06
 Reference value :  7.01694e-06
 Reference value :  7.01823e-06
 Reference value :  7.01929e-06
 Reference value :  7.02032e-06
 Reference value :  7.02156e-06
 Reference value :  7.02277e-06
 Reference value :  7.02388e-06
 Reference value :  7.02529e-06
 Reference value :  7.02716e-06
 Reference value :  7.02907e-06
 Reference value :  7.03253e-06
 Reference value :  7.03752e-06
 Reference value :  7.04379e-06
 Reference value :  7.05185e-06
 Reference value :  7.06540e-06
 Reference value :  7.09191e-06
 Reference value :  7.13808e-06
 Reference value :  7.22362e-06
 Reference value :  7.25010e-06
 Reference value :  7.25011e-06
 Reference value :  7.25013e-06
 Reference value :  7.25017e-06
 Reference value :  7.25020e-06
 Reference value :  7.25020e-06
 Reference value :  7.25020e-06
 Reference value :  7.25021e-06
 Reference value :  7.25021e-06
 Reference value :  7.25023e-06
 Reference value :  7.25025e-06
 Reference value :  7.25031e-06
 Reference value :  7.25041e-06
 Reference value :  7.25062e-06
 Reference value :  7.25098e-06
 Reference value :  7.25135e-06
 Reference value :  7.25183e-06
 Reference value :  7.25236e-06
 Reference value :  7.25306e-06
 Reference value :  7.25389e-06
 Reference value :  7.25461e-06
 Reference value :  7.25544e-06
 Reference value :  7.25623e-06
 Reference value :  7.25705e-06
 Reference value :  7.25829e-06
 Reference value :  7.25956e-06
 Reference value :  7.26156e-06
 Reference value :  7.26423e-06
 Reference value :  7.26788e-06
 Reference value :  7.27518e-06
 Reference value :  7.28825e-06
 Reference value :  7.31095e-06
 Reference value :  7.35460e-06
 Reference value :  7.44192e-06
 Reference value :  7.50000e-06
 Reference value :  7.50001e-06
 Reference value :  7.50003e-06
 Reference value :  7.50007e-06
 Reference value :  7.50010e-06
 Reference value :  7.50010e-06
 Reference value :  7.50011e-06
 Reference value :  7.50013e-06
 Reference value :  7.50016e-06
 Reference value :  7.50023e-06
 Reference value :  7.50036e-06
 Reference value :  7.50056e-06
 Reference value :  7.50096e-06
 Reference value :  7.50145e-06
 Reference value :  7.50197e-06
 Reference value :  7.50244e-06
 Reference value :  7.50300e-06
 Reference value :  7.50354e-06
 Reference value :  7.50421e-06
 Reference value :  7.50493e-06
 Reference value :  7.50573e-06
 Reference value :  7.50679e-06
 Reference value :  7.50786e-06
 Reference value :  7.50940e-06
 Reference value :  7.51044e-06
 Reference value :  7.51162e-06
 Reference value :  7.51260e-06
 Reference value :  7.51380e-06
 Reference value :  7.51500e-06
 Reference value :  7.51641e-06
 Reference value :  7.51921e-06
 Reference value :  7.52403e-06
 Reference value :  7.53348e-06
 Reference value :  7.55226e-06
 Reference value :  7.58905e-06
 Reference value :  7.66263e-06
 Reference value :  7.75010e-06
 Reference value :  7.75011e-06
 Reference value :  7.75013e-06
 Reference value :  7.75017e-06
 Reference value :  7.75020e-06
 Reference value :  7.75020e-06
 Reference value :  7.75020e-06
 Reference value :  7.75021e-06
 Reference value :  7.75021e-06
 Reference value :  7.75023e-06
 Reference value :  7.75025e-06
 Reference value :  7.75030e-06
 Reference value :  7.75041e-06
 Reference value :  7.75062e-06
 Reference value :  7.75097e-06
 Reference value :  7.75134e-06
 Reference value :  7.75181e-06
 Reference value :  7.75234e-06
 Reference value :  7.75304e-06
 Reference value :  7.75386e-06
 Reference value :  7.75460e-06
 Reference value :  7.75546e-06
 Reference value :  7.75622e-06
 Reference value :  7.75701e-06
 Reference value :  7.75790e-06
 Reference value :  7.75889e-06
 Reference value :  7.75995e-06
 Reference value :  7.76126e-06
 Reference value :  7.76305e-06
 Reference value :  7.76508e-06
 Reference value :  7.76801e-06
 Reference value :  7.77196e-06
 Reference value :  7.77986e-06
 Reference value :  7.79435e-06
 Reference value :  7.82332e-06
 Reference value :  7.88128e-06
 Reference value :  7.99718e-06
 Reference value :  8.00000e-06
 Reference value :  8.00001e-06
 Reference value :  8.00003e-06
 Reference value :  8.00007e-06
 Reference value :  8.00010e-06
 Reference value :  8.00010e-06
 Reference value :  8.00011e-06
 Reference value :  8.00013e-06
 Reference value :  8.00017e-06
 Reference value :  8.00023e-06
 Reference value :  8.00036e-06
 Reference value :  8.00056e-06
 Reference value :  8.00096e-06
 Reference value :  8.00145e-06
 Reference value :  8.00197e-06
 Reference value :  8.00247e-06
 Reference value :  8.00301e-06
 Reference value :  8.00356e-06
 Reference value :  8.00429e-06
 Reference value :  8.00497e-06
 Reference value :  8.00565e-06
 Reference value :  8.00634e-06
 Reference value :  8.00704e-06
 Reference value :  8.00772e-06
 Reference value :  8.00842e-06
 Reference value :  8.00936e-06
 Reference value :  8.01033e-06
 Reference value :  8.01175e-06
 Reference value :  8.01305e-06
 Reference value :  8.01445e-06
 Reference value :  8.01602e-06
 Reference value :  8.01747e-06
 Reference value :  8.01904e-06
 Reference value :  8.02093e-06
 Reference value :  8.02296e-06
 Reference value :  8.02553e-06
 Reference value :  8.02882e-06
 Reference value :  8.03539e-06
 Reference value :  8.04442e-06
 Reference value :  8.05683e-06
 Reference value :  8.06985e-06
 Reference value :  8.08752e-06
 Reference value :  8.11430e-06
 Reference value :  8.14269e-06
 Reference value :  8.19263e-06
 Reference value :  8.23531e-06
 Reference value :  8.25010e-06
 Reference value :  8.25011e-06
 Reference value :  8.25013e-06
 Reference value :  8.25017e-06
 Reference value :  8.25020e-06
 Reference value :  8.25020e-06
 Reference value :  8.25020e-06
 Reference value :  8.25021e-06
 Reference value :  8.25021e-06
 Reference value :  8.25023e-06
 Reference value :  8.25025e-06
 Reference value :  8.25030e-06
 Reference value :  8.25041e-06
 Reference value :  8.25062e-06
 Reference value :  8.25097e-06
 Reference value :  8.25134e-06
 Reference value :  8.25181e-06
 Reference value :  8.25234e-06
 Reference value :  8.25304e-06
 Reference value :  8.25386e-06
 Reference value :  8.25494e-06
 Reference value :  8.25597e-06
 Reference value :  8.25728e-06
 Reference value :  8.25853e-06
 Reference value :  8.26071e-06
 Reference value :  8.26276e-06
 Reference value :  8.26619e-06
 Reference value :  8.27073e-06
 Reference value :  8.27982e-06
 Reference value :  8.29798e-06
 Reference value :  8.33432e-06
 Reference value :  8.40698e-06
 Reference value :  8.48381e-06
 Reference value :  8.50000e-06
 Reference value :  8.50000e-06
 Reference value :  8.50000e-06
 Reference value :  8.50000e-06
 Reference value :  8.50000e-06
 Reference value :  8.50000e-06
 Reference value :  8.50000e-06
 Reference value :  8.50000e-06
 Reference value :  8.50000e-06
 Reference value :  8.50000e-06
 Reference value :  8.50001e-06
 Reference value :  8.50001e-06
 Reference value :  8.50002e-06
 Reference value :  8.50004e-06
 Reference value :  8.50008e-06
 Reference value :  8.50010e-06
 Reference value :  8.50010e-06
 Reference value :  8.50011e-06
 Reference value :  8.50012e-06
 Reference value :  8.50014e-06
 Reference value :  8.50018e-06
 Reference value :  8.50027e-06
 Reference value :  8.50044e-06
 Reference value :  8.50079e-06
 Reference value :  8.50129e-06
 Reference value :  8.50198e-06
 Reference value :  8.50270e-06
 Reference value :  8.50333e-06
 Reference value :  8.50398e-06
 Reference value :  8.50465e-06
 Reference value :  8.50536e-06
 Reference value :  8.50632e-06
 Reference value :  8.50733e-06
 Reference value :  8.50883e-06
 Reference value :  8.51050e-06
 Reference value :  8.51175e-06
 Reference value :  8.51315e-06
 Reference value :  8.51501e-06
 Reference value :  8.51731e-06
 Reference value :  8.51957e-06
 Reference value :  8.52411e-06
 Reference value :  8.52908e-06
 Reference value :  8.53254e-06
 Reference value :  8.53544e-06
 Reference value :  8.53817e-06
 Reference value :  8.54081e-06
 Reference value :  8.54295e-06
 Reference value :  8.54506e-06
 Reference value :  8.54657e-06
 Reference value :  8.54819e-06
 Reference value :  8.55048e-06
 Reference value :  8.55275e-06
 Reference value :  8.55418e-06
 Reference value :  8.55558e-06
 Reference value :  8.55686e-06
 Reference value :  8.55826e-06
 Reference value :  8.56040e-06
 Reference value :  8.56319e-06
 Reference value :  8.56628e-06
 Reference value :  8.57039e-06
 Reference value :  8.57505e-06
 Reference value :  8.58018e-06
 Reference value :  8.58952e-06
 Reference value :  8.60376e-06
 Reference value :  8.61670e-06
 Reference value :  8.63243e-06
 Reference value :  8.64903e-06
 Reference value :  8.67885e-06
 Reference value :  8.70755e-06
 Reference value :  8.74201e-06
 Reference value :  8.75010e-06
 Reference value :  8.75011e-06
 Reference value :  8.75013e-06
 Reference value :  8.75017e-06
 Reference value :  8.75020e-06
 Reference value :  8.75020e-06
 Reference value :  8.75020e-06
 Reference value :  8.75021e-06
 Reference value :  8.75021e-06
 Reference value :  8.75023e-06
 Reference value :  8.75025e-06
 Reference value :  8.75030e-06
 Reference value :  8.75041e-06
 Reference value :  8.75062e-06
 Reference value :  8.75098e-06
 Reference value :  8.75136e-06
 Reference value :  8.75184e-06
 Reference value :  8.75237e-06
 Reference value :  8.75302e-06
 Reference value :  8.75391e-06
 Reference value :  8.75480e-06
 Reference value :  8.75563e-06
 Reference value :  8.75662e-06
 Reference value :  8.75751e-06
 Reference value :  8.75889e-06
 Reference value :  8.76052e-06
 Reference value :  8.76259e-06
 Reference value :  8.76573e-06
 Reference value :  8.77110e-06
 Reference value :  8.78046e-06
 Reference value :  8.79621e-06
 Reference value :  8.82423e-06
 Reference value :  8.87251e-06
 Reference value :  8.93821e-06
 Reference value :  9.00000e-06
 Reference value :  9.00001e-06
 Reference value :  9.00003e-06
 Reference value :  9.00007e-06
 Reference value :  9.00010e-06
 Reference value :  9.00010e-06
 Reference value :  9.00011e-06
 Reference value :  9.00013e-06
 Reference value :  9.00016e-06
 Reference value :  9.00023e-06
 Reference value :  9.00036e-06
 Reference value :  9.00058e-06
 Reference value :  9.00100e-06
 Reference value :  9.00150e-06
 Reference value :  9.00203e-06
 Reference value :  9.00253e-06
 Reference value :  9.00314e-06
 Reference value :  9.00375e-06
 Reference value :  9.00450e-06
 Reference value :  9.00529e-06
 Reference value :  9.00604e-06
 Reference value :  9.00720e-06
 Reference value :  9.00838e-06
 Reference value :  9.01016e-06
 Reference value :  9.01232e-06
 Reference value :  9.01388e-06
 Reference value :  9.01562e-06
 Reference value :  9.01736e-06
 Reference value :  9.01939e-06
 Reference value :  9.02166e-06
 Reference value :  9.02385e-06
 Reference value :  9.02817e-06
 Reference value :  9.03426e-06
 Reference value :  9.04262e-06
 Reference value :  9.05934e-06
 Reference value :  9.08570e-06
 Reference value :  9.12965e-06
 Reference value :  9.17145e-06
 Reference value :  9.19960e-06
 Reference value :  9.21518e-06
 Reference value :  9.22666e-06
 Reference value :  9.23464e-06
 Reference value :  9.24346e-06
 Reference value :  9.25010e-06
 Reference value :  9.25011e-06
 Reference value :  9.25013e-06
 Reference value :  9.25017e-06
 Reference value :  9.25020e-06
 Reference value :  9.25020e-06
 Reference value :  9.25020e-06
 Reference value :  9.25021e-06
 Reference value :  9.25021e-06
 Reference value :  9.25023e-06
 Reference value :  9.25025e-06
 Reference value :  9.25031e-06
 Reference value :  9.25041e-06
 Reference value :  9.25062e-06
 Reference value :  9.25098e-06
 Reference value :  9.25136e-06
 Reference value :  9.25184e-06
 Reference value :  9.25237e-06
 Reference value :  9.25309e-06
 Reference value :  9.25394e-06
 Reference value :  9.25470e-06
 Reference value :  9.25557e-06
 Reference value :  9.25633e-06
 Reference value :  9.25713e-06
 Reference value :  9.25802e-06
 Reference value :  9.25903e-06
 Reference value :  9.25994e-06
 Reference value :  9.26140e-06
 Reference value :  9.26280e-06
 Reference value :  9.26495e-06
 Reference value :  9.26747e-06
 Reference value :  9.27119e-06
 Reference value :  9.27714e-06
 Reference value :  9.28517e-06
 Reference value :  9.29799e-06
 Reference value :  9.32003e-06
 Reference value :  9.35721e-06
 Reference value :  9.41936e-06
 Reference value :  9.50000e-06
 Reference value :  9.50001e-06
 Reference value :  9.50003e-06
 Reference value :  9.50007e-06
 Reference value :  9.50010e-06
 Reference value :  9.50010e-06
 Reference value :  9.50011e-06
 Reference value :  9.50013e-06
 Reference value :  9.50016e-06
 Reference value :  9.50023e-06
 Reference value :  9.50036e-06
 Reference value :  9.50058e-06
 Reference value :  9.50100e-06
 Reference value :  9.50150e-06
 Reference value :  9.50203e-06
 Reference value :  9.50253e-06
 Reference value :  9.50314e-06
 Reference value :  9.50370e-06
 Reference value :  9.50449e-06
 Reference value :  9.50522e-06
 Reference value :  9.50594e-06
 Reference value :  9.50690e-06
 Reference value :  9.50777e-06
 Reference value :  9.50858e-06
 Reference value :  9.50949e-06
 Reference value :  9.51058e-06
 Reference value :  9.51215e-06
 Reference value :  9.51400e-06
 Reference value :  9.51534e-06
 Reference value :  9.51682e-06
 Reference value :  9.51827e-06
 Reference value :  9.51961e-06
 Reference value :  9.52064e-06
 Reference value :  9.52174e-06
 Reference value :  9.52306e-06
 Reference value :  9.52442e-06
 Reference value :  9.52580e-06
 Reference value :  9.52793e-06
 Reference value :  9.53014e-06
 Reference value :  9.53456e-06
 Reference value :  9.54124e-06
 Reference value :  9.55178e-06
 Reference value :  9.56858e-06
 Reference value :  9.58516e-06
 Reference value :  9.60322e-06
 Reference value :  9.61665e-06
 Reference value :  9.62282e-06
 Reference value :  9.62864e-06
 Reference value :  9.63496e-06
 Reference value :  9.64497e-06
 Reference value :  9.65792e-06
 Reference value :  9.67784e-06
 Reference value :  9.70967e-06
 Reference value :  9.75010e-06
 Reference value :  9.75011e-06
 Reference value :  9.75013e-06
 Reference value :  9.75017e-06
 Reference value :  9.75020e-06
 Reference value :  9.75020e-06
 Reference value :  9.75020e-06
 Reference value :  9.75021e-06
 Reference value :  9.75021e-06
 Reference value :  9.75023e-06
 Reference value :  9.75025e-06
 Reference value :  9.75031e-06
 Reference value :  9.75041e-06
 Reference value :  9.75062e-06
 Reference value :  9.75098e-06
 Reference value :  9.75135e-06
 Reference value :  9.75182e-06
 Reference value :  9.75236e-06
 Reference value :  9.75304e-06
 Reference value :  9.75389e-06
 Reference value :  9.75469e-06
 Reference value :  9.75557e-06
 Reference value :  9.75645e-06
 Reference value :  9.75733e-06
 Reference value :  9.75879e-06
 Reference value :  9.76019e-06
 Reference value :  9.76231e-06
 Reference value :  9.76519e-06
 Reference value :  9.76997e-06
 Reference value :  9.77913e-06
 Reference value :  9.79327e-06
 Reference value :  9.82006e-06
 Reference value :  9.86544e-06
 Reference value :  9.93039e-06
 Reference value :  1.00000e-05
 Reference value :  1.00000e-05
 Reference value :  1.00000e-05
 Reference value :  1.00001e-05
 Reference value :  1.00001e-05
 Reference value :  1.00001e-05
 Reference value :  1.00001e-05
 Reference value :  1.00001e-05
 Reference value :  1.00002e-05
 Reference value :  1.00002e-05
 Reference value :  1.00004e-05
 Reference value :  1.00006e-05
 Reference value :  1.00010e-05
 Reference value :  1.00015e-05
 Reference value :  1.00020e-05
 Reference value :  1.00025e-05
 Reference value :  1.00030e-05
 Reference value :  1.00036e-05
 Reference value :  1.00043e-05
 Reference value :  1.00050e-05
 Reference value :  1.00059e-05
 Reference value :  1.00069e-05
 Reference value :  1.00081e-05
 Reference value :  1.00095e-05
 Reference value :  1.00106e-05
 Reference value :  1.00118e-05
 Reference value :  1.00129e-05
 Reference value :  1.00142e-05
 Reference value :  1.00154e-05
 Reference value :  1.00169e-05
 Reference value :  1.00198e-05
 Reference value :  1.00249e-05
 Reference value :  1.00341e-05
 Reference value :  1.00523e-05
 Reference value :  1.00871e-05
 Reference value :  1.01546e-05
 Reference value :  1.02501e-05
 Reference value :  1.02501e-05
 Reference value :  1.02501e-05
 Reference value :  1.02502e-05
 Reference value :  1.02502e-05
 Reference value :  1.02502e-05
 Reference value :  1.02502e-05
 Reference value :  1.02502e-05
 Reference value :  1.02502e-05
 Reference value :  1.02502e-05
 Reference value :  1.02503e-05
 Reference value :  1.02503e-05
 Reference value :  1.02504e-05
 Reference value :  1.02506e-05
 Reference value :  1.02510e-05
 Reference value :  1.02513e-05
 Reference value :  1.02518e-05
 Reference value :  1.02523e-05
 Reference value :  1.02530e-05
 Reference value :  1.02539e-05
 Reference value :  1.02546e-05
 Reference value :  1.02555e-05
 Reference value :  1.02564e-05
 Reference value :  1.02572e-05
 Reference value :  1.02581e-05
 Reference value :  1.02591e-05
 Reference value :  1.02610e-05
 Reference value :  1.02635e-05
 Reference value :  1.02668e-05
 Reference value :  1.02735e-05
 Reference value :  1.02867e-05
 Reference value :  1.03087e-05
 Reference value :  1.03527e-05
 Reference value :  1.04406e-05
 Reference value :  1.05000e-05
 Reference value :  1.05000e-05
 Reference value :  1.05000e-05
 Reference value :  1.05001e-05
 Reference value :  1.05001e-05
 Reference value :  1.05001e-05
 Reference value :  1.05001e-05
 Reference value :  1.05001e-05
 Reference value :  1.05002e-05
 Reference value :  1.05002e-05
 Reference value :  1.05004e-05
 Reference value :  1.05006e-05
 Reference value :  1.05010e-05
 Reference value :  1.05015e-05
 Reference value :  1.05020e-05
 Reference value :  1.05025e-05
 Reference value :  1.05030e-05
 Reference value :  1.05036e-05
 Reference value :  1.05043e-05
 Reference value :  1.05050e-05
 Reference value :  1.05058e-05
 Reference value :  1.05066e-05
 Reference value :  1.05076e-05
 Reference value :  1.05085e-05
 Reference value :  1.05094e-05
 Reference value :  1.05108e-05
 Reference value :  1.05121e-05
 Reference value :  1.05141e-05
 Reference value :  1.05161e-05
 Reference value :  1.05179e-05
 Reference value :  1.05195e-05
 Reference value :  1.05211e-05
 Reference value :  1.05226e-05
 Reference value :  1.05242e-05
 Reference value :  1.05259e-05
 Reference value :  1.05278e-05
 Reference value :  1.05300e-05
 Reference value :  1.05336e-05
 Reference value :  1.05383e-05
 Reference value :  1.05462e-05
 Reference value :  1.05590e-05
 Reference value :  1.05797e-05
 Reference value :  1.06056e-05
 Reference value :  1.06567e-05
 Reference value :  1.07185e-05
 Reference value :  1.07501e-05
 Reference value :  1.07501e-05
 Reference value :  1.07501e-05
 Reference value :  1.07502e-05
 Reference value :  1.07502e-05
 Reference value :  1.07502e-05
 Reference value :  1.07502e-05
 Reference value :  1.07502e-05
 Reference value :  1.07502e-05
 Reference value :  1.07502e-05
 Reference value :  1.07503e-05
 Reference value :  1.07503e-05
 Reference value :  1.07504e-05
 Reference value :  1.07506e-05
 Reference value :  1.07510e-05
 Reference value :  1.07514e-05
 Reference value :  1.07518e-05
 Reference value :  1.07524e-05
 Reference value :  1.07531e-05
 Reference value :  1.07539e-05
 Reference value :  1.07547e-05
 Reference value :  1.07556e-05
 Reference value :  1.07564e-05
 Reference value :  1.07573e-05
 Reference value :  1.07587e-05
 Reference value :  1.07601e-05
 Reference value :  1.07622e-05
 Reference value :  1.07651e-05
 Reference value :  1.07697e-05
 Reference value :  1.07790e-05
 Reference value :  1.07929e-05
 Reference value :  1.08198e-05
 Reference value :  1.08653e-05
 Reference value :  1.09455e-05
 Reference value :  1.10000e-05
 Reference value :  1.10000e-05
 Reference value :  1.10000e-05
 Reference value :  1.10001e-05
 Reference value :  1.10001e-05
 Reference value :  1.10001e-05
 Reference value :  1.10001e-05
 Reference value :  1.10001e-05
 Reference value :  1.10002e-05
 Reference value :  1.10002e-05
 Reference value :  1.10004e-05
 Reference value :  1.10006e-05
 Reference value :  1.10010e-05
 Reference value :  1.10015e-05
 Reference value :  1.10020e-05
 Reference value :  1.10025e-05
 Reference value :  1.10030e-05
 Reference value :  1.10036e-05
 Reference value :  1.10043e-05
 Reference value :  1.10050e-05
 Reference value :  1.10059e-05
 Reference value :  1.10070e-05
 Reference value :  1.10081e-05
 Reference value :  1.10096e-05
 Reference value :  1.10107e-05
 Reference value :  1.10120e-05
 Reference value :  1.10130e-05
 Reference value :  1.10143e-05
 Reference value :  1.10155e-05
 Reference value :  1.10170e-05
 Reference value :  1.10199e-05
 Reference value :  1.10245e-05
 Reference value :  1.10337e-05
 Reference value :  1.10516e-05
 Reference value :  1.10852e-05
 Reference value :  1.11524e-05
 Reference value :  1.12501e-05
 Reference value :  1.12501e-05
 Reference value :  1.12501e-05
 Reference value :  1.12502e-05
 Reference value :  1.12502e-05
 Reference value :  1.12502e-05
 Reference value :  1.12502e-05
 Reference value :  1.12502e-05
 Reference value :  1.12502e-05
 Reference value :  1.12502e-05
 Reference value :  1.12503e-05
 Reference value :  1.12503e-05
 Reference value :  1.12504e-05
 Reference value :  1.12506e-05
 Reference value :  1.12510e-05
 Reference value :  1.12513e-05
 Reference value :  1.12518e-05
 Reference value :  1.12523e-05
 Reference value :  1.12530e-05
 Reference value :  1.12539e-05
 Reference value :  1.12546e-05
 Reference value :  1.12555e-05
 Reference value :  1.12564e-05
 Reference value :  1.12572e-05
 Reference value :  1.12581e-05
 Reference value :  1.12591e-05
 Reference value :  1.12609e-05
 Reference value :  1.12635e-05
 Reference value :  1.12668e-05
 Reference value :  1.12734e-05
 Reference value :  1.12866e-05
 Reference value :  1.13086e-05
 Reference value :  1.13525e-05
 Reference value :  1.14404e-05
 Reference value :  1.15000e-05
 Reference value :  1.15000e-05
 Reference value :  1.15000e-05
 Reference value :  1.15001e-05
 Reference value :  1.15001e-05
 Reference value :  1.15001e-05
 Reference value :  1.15001e-05
 Reference value :  1.15001e-05
 Reference value :  1.15002e-05
 Reference value :  1.15002e-05
 Reference value :  1.15004e-05
 Reference value :  1.15006e-05
 Reference value :  1.15010e-05
 Reference value :  1.15015e-05
 Reference value :  1.15020e-05
 Reference value :  1.15025e-05
 Reference value :  1.15030e-05
 Reference value :  1.15036e-05
 Reference value :  1.15043e-05
 Reference value :  1.15050e-05
 Reference value :  1.15057e-05
 Reference value :  1.15065e-05
 Reference value :  1.15076e-05
 Reference value :  1.15084e-05
 Reference value :  1.15093e-05
 Reference value :  1.15105e-05
 Reference value :  1.15118e-05
 Reference value :  1.15137e-05
 Reference value :  1.15159e-05
 Reference value :  1.15179e-05
 Reference value :  1.15194e-05
 Reference value :  1.15208e-05
 Reference value :  1.15224e-05
 Reference value :  1.15239e-05
 Reference value :  1.15256e-05
 Reference value :  1.15274e-05
 Reference value :  1.15298e-05
 Reference value :  1.15332e-05
 Reference value :  1.15384e-05
 Reference value :  1.15475e-05
 Reference value :  1.15613e-05
 Reference value :  1.15818e-05
 Reference value :  1.16041e-05
 Reference value :  1.16201e-05
 Reference value :  1.16326e-05
 Reference value :  1.16447e-05
 Reference value :  1.16570e-05
 Reference value :  1.16650e-05
 Reference value :  1.16763e-05
 Reference value :  1.16910e-05
 Reference value :  1.17050e-05
 Reference value :  1.17331e-05
 Reference value :  1.17501e-05
 Reference value :  1.17501e-05
 Reference value :  1.17501e-05
 Reference value :  1.17502e-05
 Reference value :  1.17502e-05
 Reference value :  1.17502e-05
 Reference value :  1.17502e-05
 Reference value :  1.17502e-05
 Reference value :  1.17502e-05
 Reference value :  1.17502e-05
 Reference value :  1.17503e-05
 Reference value :  1.17503e-05
 Reference value :  1.17504e-05
 Reference value :  1.17506e-05
 Reference value :  1.17510e-05
 Reference value :  1.17513e-05
 Reference value :  1.17518e-05
 Reference value :  1.17523e-05
 Reference value :  1.17530e-05
 Reference value :  1.17539e-05
 Reference value :  1.17546e-05
 Reference value :  1.17554e-05
 Reference value :  1.17562e-05
 Reference value :  1.17570e-05
 Reference value :  1.17582e-05
 Reference value :  1.17595e-05
 Reference value :  1.17615e-05
 Reference value :  1.17641e-05
 Reference value :  1.17677e-05
 Reference value :  1.17749e-05
 Reference value :  1.17882e-05
 Reference value :  1.18112e-05
 Reference value :  1.18465e-05
 Reference value :  1.18955e-05
 Reference value :  1.19400e-05
 Reference value :  1.19883e-05
 Reference value :  1.20000e-05
 Reference value :  1.20000e-05
 Reference value :  1.20000e-05
 Reference value :  1.20001e-05
 Reference value :  1.20001e-05
 Reference value :  1.20001e-05
 Reference value :  1.20001e-05
 Reference value :  1.20001e-05
 Reference value :  1.20002e-05
 Reference value :  1.20002e-05
 Reference value :  1.20004e-05
 Reference value :  1.20006e-05
 Reference value :  1.20010e-05
 Reference value :  1.20015e-05
 Reference value :  1.20020e-05
 Reference value :  1.20025e-05
 Reference value :  1.20030e-05
 Reference value :  1.20036e-05
 Reference value :  1.20043e-05
 Reference value :  1.20050e-05
 Reference value :  1.20059e-05
 Reference value :  1.20069e-05
 Reference value :  1.20080e-05
 Reference value :  1.20094e-05
 Reference value :  1.20105e-05
 Reference value :  1.20116e-05
 Reference value :  1.20126e-05
 Reference value :  1.20138e-05
 Reference value :  1.20150e-05
 Reference value :  1.20164e-05
 Reference value :  1.20192e-05
 Reference value :  1.20244e-05
 Reference value :  1.20335e-05
 Reference value :  1.20518e-05
 Reference value :  1.20875e-05
 Reference value :  1.21571e-05
 Reference value :  1.22501e-05
 Reference value :  1.22501e-05
 Reference value :  1.22501e-05
 Reference value :  1.22502e-05
 Reference value :  1.22502e-05
 Reference value :  1.22502e-05
 Reference value :  1.22502e-05
 Reference value :  1.22502e-05
 Reference value :  1.22502e-05
 Reference value :  1.22502e-05
 Reference value :  1.22503e-05
 Reference value :  1.22503e-05
 Reference value :  1.22504e-05
 Reference value :  1.22506e-05
 Reference value :  1.22510e-05
 Reference value :  1.22513e-05
 Reference value :  1.22518e-05
 Reference value :  1.22523e-05
 Reference value :  1.22530e-05
 Reference value :  1.22539e-05
 Reference value :  1.22546e-05
 Reference value :  1.22555e-05
 Reference value :  1.22564e-05
 Reference value :  1.22572e-05
 Reference value :  1.22581e-05
 Reference value :  1.22591e-05
 Reference value :  1.22609e-05
 Reference value :  1.22635e-05
 Reference value :  1.22668e-05
 Reference value :  1.22734e-05
 Reference value :  1.22866e-05
 Reference value :  1.23086e-05
 Reference value :  1.23524e-05
 Reference value :  1.24401e-05
 Reference value :  1.25000e-05
 Reference value :  1.25000e-05
 Reference value :  1.25000e-05
 Reference value :  1.25001e-05
 Reference value :  1.25001e-05
 Reference value :  1.25001e-05
 Reference value :  1.25001e-05
 Reference value :  1.25001e-05
 Reference value :  1.25002e-05
 Reference value :  1.25002e-05
 Reference value :  1.25004e-05
 Reference value :  1.25006e-05
 Reference value :  1.25010e-05
 Reference value :  1.25015e-05
 Reference value :  1.25020e-05
 Reference value :  1.25025e-05
 Reference value :  1.25030e-05
 Reference value :  1.25036e-05
 Reference value :  1.25043e-05
 Reference value :  1.25050e-05
 Reference value :  1.25058e-05
 Reference value :  1.25065e-05
 Reference value :  1.25076e-05
 Reference value :  1.25085e-05
 Reference value :  1.25094e-05
 Reference value :  1.25107e-05
 Reference value :  1.25121e-05
 Reference value :  1.25140e-05
 Reference value :  1.25160e-05
 Reference value :  1.25180e-05
 Reference value :  1.25194e-05
 Reference value :  1.25208e-05
 Reference value :  1.25221e-05
 Reference value :  1.25236e-05
 Reference value :  1.25253e-05
 Reference value :  1.25269e-05
 Reference value :  1.25293e-05
 Reference value :  1.25327e-05
 Reference value :  1.25363e-05
 Reference value :  1.25411e-05
 Reference value :  1.25465e-05
 Reference value :  1.25493e-05
 Reference value :  1.25526e-05
 Reference value :  1.25562e-05
 Reference value :  1.25597e-05
 Reference value :  1.25635e-05
 Reference value :  1.25712e-05
 Reference value :  1.25789e-05
 Reference value :  1.25856e-05
 Reference value :  1.25943e-05
 Reference value :  1.26043e-05
 Reference value :  1.26207e-05
 Reference value :  1.26468e-05
 Reference value :  1.26873e-05
 Reference value :  1.27291e-05
 Reference value :  1.27501e-05
 Reference value :  1.27501e-05
 Reference value :  1.27501e-05
 Reference value :  1.27502e-05
 Reference value :  1.27502e-05
 Reference value :  1.27502e-05
 Reference value :  1.27502e-05
 Reference value :  1.27502e-05
 Reference value :  1.27502e-05
 Reference value :  1.27502e-05
 Reference value :  1.27503e-05
 Reference value :  1.27503e-05
 Reference value :  1.27504e-05
 Reference value :  1.27506e-05
 Reference value :  1.27510e-05
 Reference value :  1.27514e-05
 Reference value :  1.27518e-05
 Reference value :  1.27524e-05
 Reference value :  1.27531e-05
 Reference value :  1.27539e-05
 Reference value :  1.27546e-05
 Reference value :  1.27554e-05
 Reference value :  1.27562e-05
 Reference value :  1.27570e-05
 Reference value :  1.27583e-05
 Reference value :  1.27595e-05
 Reference value :  1.27615e-05
 Reference value :  1.27642e-05
 Reference value :  1.27678e-05
 Reference value :  1.27750e-05
 Reference value :  1.27883e-05
 Reference value :  1.28110e-05
 Reference value :  1.28565e-05
 Reference value :  1.29476e-05
 Reference value :  1.30000e-05
 Reference value :  1.30000e-05
 Reference value :  1.30000e-05
 Reference value :  1.30001e-05
 Reference value :  1.30001e-05
 Reference value :  1.30001e-05
 Reference value :  1.30001e-05
 Reference value :  1.30001e-05
 Reference value :  1.30002e-05
 Reference value :  1.30002e-05
 Reference value :  1.30004e-05
 Reference value :  1.30006e-05
 Reference value :  1.30010e-05
 Reference value :  1.30015e-05
 Reference value :  1.30020e-05
 Reference value :  1.30024e-05
 Reference value :  1.30030e-05
 Reference value :  1.30036e-05
 Reference value :  1.30042e-05
 Reference value :  1.30049e-05
 Reference value :  1.30057e-05
 Reference value :  1.30068e-05
 Reference value :  1.30078e-05
 Reference value :  1.30092e-05
 Reference value :  1.30101e-05
 Reference value :  1.30112e-05
 Reference value :  1.30122e-05
 Reference value :  1.30134e-05
 Reference value :  1.30145e-05
 Reference value :  1.30159e-05
 Reference value :  1.30186e-05
 Reference value :  1.30240e-05
 Reference value :  1.30335e-05
 Reference value :  1.30525e-05
 Reference value :  1.30906e-05
 Reference value :  1.31667e-05
 Reference value :  1.32501e-05
 Reference value :  1.32501e-05
 Reference value :  1.32501e-05
 Reference value :  1.32502e-05
 Reference value :  1.32502e-05
 Reference value :  1.32502e-05
 Reference value :  1.32502e-05
 Reference value :  1.32502e-05
 Reference value :  1.32502e-05
 Reference value :  1.32502e-05
 Reference value :  1.32503e-05
 Reference value :  1.32503e-05
 Reference value :  1.32504e-05
 Reference value :  1.32506e-05
 Reference value :  1.32510e-05
 Reference value :  1.32513e-05
 Reference value :  1.32518e-05
 Reference value :  1.32523e-05
 Reference value :  1.32530e-05
 Reference value :  1.32539e-05
 Reference value :  1.32546e-05
 Reference value :  1.32555e-05
 Reference value :  1.32564e-05
 Reference value :  1.32572e-05
 Reference value :  1.32581e-05
 Reference value :  1.32591e-05
 Reference value :  1.32603e-05
 Reference value :  1.32615e-05
 Reference value :  1.32634e-05
 Reference value :  1.32654e-05
 Reference value :  1.32686e-05
 Reference value :  1.32732e-05
 Reference value :  1.32823e-05
 Reference value :  1.33006e-05
 Reference value :  1.33355e-05
 Reference value :  1.34054e-05
 Reference value :  1.35000e-05
 Reference value :  1.35000e-05
 Reference value :  1.35000e-05
 Reference value :  1.35001e-05
 Reference value :  1.35001e-05
 Reference value :  1.35001e-05
 Reference value :  1.35001e-05
 Reference value :  1.35001e-05
 Reference value :  1.35002e-05
 Reference value :  1.35002e-05
 Reference value :  1.35004e-05
 Reference value :  1.35006e-05
 Reference value :  1.35010e-05
 Reference value :  1.35015e-05
 Reference value :  1.35020e-05
 Reference value :  1.35025e-05
 Reference value :  1.35030e-05
 Reference value :  1.35036e-05
 Reference value :  1.35043e-05
 Reference value :  1.35050e-05
 Reference value :  1.35056e-05
 Reference value :  1.35063e-05
 Reference value :  1.35070e-05
 Reference value :  1.35077e-05
 Reference value :  1.35084e-05
 Reference value :  1.35093e-05
 Reference value :  1.35103e-05
 Reference value :  1.35119e-05
 Reference value :  1.35130e-05
 Reference value :  1.35142e-05
 Reference value :  1.35154e-05
 Reference value :  1.35169e-05
 Reference value :  1.35183e-05
 Reference value :  1.35194e-05
 Reference value :  1.35206e-05
 Reference value :  1.35218e-05
 Reference value :  1.35231e-05
 Reference value :  1.35245e-05
 Reference value :  1.35259e-05
 Reference value :  1.35283e-05
 Reference value :  1.35306e-05
 Reference value :  1.35350e-05
 Reference value :  1.35430e-05
 Reference value :  1.35532e-05
 Reference value :  1.35633e-05
 Reference value :  1.35738e-05
 Reference value :  1.35854e-05
 Reference value :  1.35981e-05
 Reference value :  1.36164e-05
 Reference value :  1.36347e-05
 Reference value :  1.36451e-05
 Reference value :  1.36606e-05
 Reference value :  1.36761e-05
 Reference value :  1.37001e-05
 Reference value :  1.37440e-05
 Reference value :  1.37501e-05
 Reference value :  1.37501e-05
 Reference value :  1.37501e-05
 Reference value :  1.37502e-05
 Reference value :  1.37502e-05
 Reference value :  1.37502e-05
 Reference value :  1.37502e-05
 Reference value :  1.37502e-05
 Reference value :  1.37502e-05
 Reference value :  1.37502e-05
 Reference value :  1.37503e-05
 Reference value :  1.37503e-05
 Reference value :  1.37504e-05
 Reference value :  1.37506e-05
 Reference value :  1.37510e-05
 Reference value :  1.37514e-05
 Reference value :  1.37518e-05
 Reference value :  1.37524e-05
 Reference value :  1.37531e-05
 Reference value :  1.37539e-05
 Reference value :  1.37546e-05
 Reference value :  1.37555e-05
 Reference value :  1.37564e-05
 Reference value :  1.37572e-05
 Reference value :  1.37585e-05
 Reference value :  1.37598e-05
 Reference value :  1.37619e-05
 Reference value :  1.37646e-05
 Reference value :  1.37686e-05
 Reference value :  1.37767e-05
 Reference value :  1.37899e-05
 Reference value :  1.38138e-05
 Reference value :  1.38572e-05
 Reference value :  1.39435e-05
 Reference value :  1.40000e-05
 Reference value :  1.40000e-05
 Reference value :  1.40000e-05
 Reference value :  1.40001e-05
 Reference value :  1.40001e-05
 Reference value :  1.40001e-05
 Reference value :  1.40001e-05
 Reference value :  1.40001e-05
 Reference value :  1.40002e-05
 Reference value :  1.40002e-05
 Reference value :  1.40004e-05
 Reference value :  1.40006e-05
 Reference value :  1.40010e-05
 Reference value :  1.40015e-05
 Reference value :  1.40020e-05
 Reference value :  1.40025e-05
 Reference value :  1.40030e-05
 Reference value :  1.40036e-05
 Reference value :  1.40042e-05
 Reference value :  1.40049e-05
 Reference value :  1.40058e-05
 Reference value :  1.40068e-05
 Reference value :  1.40079e-05
 Reference value :  1.40092e-05
 Reference value :  1.40103e-05
 Reference value :  1.40114e-05
 Reference value :  1.40124e-05
 Reference value :  1.40135e-05
 Reference value :  1.40147e-05
 Reference value :  1.40161e-05
 Reference value :  1.40189e-05
 Reference value :  1.40233e-05
 Reference value :  1.40320e-05
 Reference value :  1.40496e-05
 Reference value :  1.40834e-05
 Reference value :  1.41510e-05
 Reference value :  1.42501e-05
 Reference value :  1.42501e-05
 Reference value :  1.42501e-05
 Reference value :  1.42502e-05
 Reference value :  1.42502e-05
 Reference value :  1.42502e-05
 Reference value :  1.42502e-05
 Reference value :  1.42502e-05
 Reference value :  1.42502e-05
 Reference value :  1.42502e-05
 Reference value :  1.42503e-05
 Reference value :  1.42503e-05
 Reference value :  1.42504e-05
 Reference value :  1.42506e-05
 Reference value :  1.42510e-05
 Reference value :  1.42513e-05
 Reference value :  1.42518e-05
 Reference value :  1.42523e-05
 Reference value :  1.42530e-05
 Reference value :  1.42539e-05
 Reference value :  1.42546e-05
 Reference value :  1.42555e-05
 Reference value :  1.42564e-05
 Reference value :  1.42572e-05
 Reference value :  1.42581e-05
 Reference value :  1.42591e-05
 Reference value :  1.42603e-05
 Reference value :  1.42615e-05
 Reference value :  1.42634e-05
 Reference value :  1.42655e-05
 Reference value :  1.42686e-05
 Reference value :  1.42732e-05
 Reference value :  1.42825e-05
 Reference value :  1.43010e-05
 Reference value :  1.43363e-05
 Reference value :  1.44070e-05
 Reference value :  1.45000e-05
 Reference value :  1.45000e-05
 Reference value :  1.45000e-05
 Reference value :  1.45001e-05
 Reference value :  1.45001e-05
 Reference value :  1.45001e-05
 Reference value :  1.45001e-05
 Reference value :  1.45001e-05
 Reference value :  1.45002e-05
 Reference value :  1.45002e-05
 Reference value :  1.45004e-05
 Reference value :  1.45006e-05
 Reference value :  1.45010e-05
 Reference value :  1.45015e-05
 Reference value :  1.45020e-05
 Reference value :  1.45025e-05
 Reference value :  1.45030e-05
 Reference value :  1.45036e-05
 Reference value :  1.45043e-05
 Reference value :  1.45050e-05
 Reference value :  1.45056e-05
 Reference value :  1.45063e-05
 Reference value :  1.45070e-05
 Reference value :  1.45078e-05
 Reference value :  1.45085e-05
 Reference value :  1.45095e-05
 Reference value :  1.45105e-05
 Reference value :  1.45120e-05
 Reference value :  1.45130e-05
 Reference value :  1.45142e-05
 Reference value :  1.45154e-05
 Reference value :  1.45168e-05
 Reference value :  1.45181e-05
 Reference value :  1.45191e-05
 Reference value :  1.45200e-05
 Reference value :  1.45211e-05
 Reference value :  1.45221e-05
 Reference value :  1.45232e-05
 Reference value :  1.45245e-05
 Reference value :  1.45259e-05
 Reference value :  1.45280e-05
 Reference value :  1.45308e-05
 Reference value :  1.45364e-05
 Reference value :  1.45416e-05
 Reference value :  1.45491e-05
 Reference value :  1.45579e-05
 Reference value :  1.45683e-05
 Reference value :  1.45888e-05
 Reference value :  1.46261e-05
 Reference value :  1.46627e-05
 Reference value :  1.47008e-05
 Reference value :  1.47422e-05
 Reference value :  1.47501e-05
 Reference value :  1.47501e-05
 Reference value :  1.47501e-05
 Reference value :  1.47502e-05
 Reference value :  1.47502e-05
 Reference value :  1.47502e-05
 Reference value :  1.47502e-05
 Reference value :  1.47502e-05
 Reference value :  1.47502e-05
 Reference value :  1.47502e-05
 Reference value :  1.47503e-05
 Reference value :  1.47503e-05
 Reference value :  1.47504e-05
 Reference value :  1.47506e-05
 Reference value :  1.47510e-05
 Reference value :  1.47513e-05
 Reference value :  1.47518e-05
 Reference value :  1.47523e-05
 Reference value :  1.47530e-05
 Reference value :  1.47539e-05
 Reference value :  1.47546e-05
 Reference value :  1.47555e-05
 Reference value :  1.47564e-05
 Reference value :  1.47572e-05
 Reference value :  1.47587e-05
 Reference value :  1.47600e-05
 Reference value :  1.47621e-05
 Reference value :  1.47649e-05
 Reference value :  1.47693e-05
 Reference value :  1.47782e-05
 Reference value :  1.47919e-05
 Reference value :  1.48180e-05
 Reference value :  1.48634e-05
 Reference value :  1.49442e-05
 Reference value :  1.50000e-05
 Reference value :  1.50000e-05
 Reference value :  1.50000e-05
 Reference value :  1.50001e-05
 Reference value :  1.50001e-05
 Reference value :  1.50001e-05
 Reference value :  1.50001e-05
 Reference value :  1.50001e-05
 Reference value :  1.50002e-05
 Reference value :  1.50002e-05
 Reference value :  1.50004e-05
 Reference value :  1.50006e-05
 Reference value :  1.50010e-05
 Reference value :  1.50015e-05
 Reference value :  1.50020e-05
 Reference value :  1.50025e-05
 Reference value :  1.50030e-05
 Reference value :  1.50036e-05
 Reference value :  1.50042e-05
 Reference value :  1.50049e-05
 Reference value :  1.50057e-05
 Reference value :  1.50068e-05
 Reference value :  1.50078e-05
 Reference value :  1.50093e-05
 Reference value :  1.50103e-05
 Reference value :  1.50114e-05
 Reference value :  1.50124e-05
 Reference value :  1.50136e-05
 Reference value :  1.50149e-05
 Reference value :  1.50163e-05
 Reference value :  1.50192e-05
 Reference value :  1.50235e-05
 Reference value :  1.50322e-05
 Reference value :  1.50495e-05
 Reference value :  1.50826e-05
 Reference value :  1.51489e-05
 Reference value :  1.52501e-05
 Reference value :  1.52501e-05
 Reference value :  1.52501e-05
 Reference value :  1.52502e-05
 Reference value :  1.52502e-05
 Reference value :  1.52502e-05
 Reference value :  1.52502e-05
 Reference value :  1.52502e-05
 Reference value :  1.52502e-05
 Reference value :  1.52502e-05
 Reference value :  1.52503e-05
 Reference value :  1.52503e-05
 Reference value :  1.52504e-05
 Reference value :  1.52506e-05
 Reference value :  1.52510e-05
 Reference value :  1.52513e-05
 Reference value :  1.52518e-05
 Reference value :  1.52523e-05
 Reference value :  1.52530e-05
 Reference value :  1.52539e-05
 Reference value :  1.52546e-05
 Reference value :  1.52555e-05
 Reference value :  1.52564e-05
 Reference value :  1.52572e-05
 Reference value :  1.52581e-05
 Reference value :  1.52591e-05
[...]
 Reference value :  1.65789e-04
 Reference value :  1.65813e-04
 Reference value :  1.65859e-04
 Reference value :  1.65951e-04
 Reference value :  1.66000e-04
 Reference value :  1.66000e-04
 Reference value :  1.66000e-04
 Reference value :  1.66000e-04
 Reference value :  1.66000e-04
 Reference value :  1.66000e-04
 Reference value :  1.66000e-04
 Reference value :  1.66000e-04
 Reference value :  1.66000e-04
 Reference value :  1.66000e-04
 Reference value :  1.66000e-04
 Reference value :  1.66001e-04
 Reference value :  1.66001e-04
 Reference value :  1.66001e-04
 Reference value :  1.66002e-04
 Reference value :  1.66002e-04
 Reference value :  1.66003e-04
 Reference value :  1.66004e-04
 Reference value :  1.66004e-04
 Reference value :  1.66005e-04
 Reference value :  1.66006e-04
 Reference value :  1.66007e-04
 Reference value :  1.66008e-04
 Reference value :  1.66009e-04
 Reference value :  1.66010e-04
 Reference value :  1.66011e-04
 Reference value :  1.66012e-04
 Reference value :  1.66013e-04
 Reference value :  1.66015e-04
 Reference value :  1.66016e-04
 Reference value :  1.66019e-04
 Reference value :  1.66024e-04
 Reference value :  1.66033e-04
 Reference value :  1.66053e-04
 Reference value :  1.66091e-04
 Reference value :  1.66167e-04
 Reference value :  1.66250e-04
 Reference value :  1.66250e-04
 Reference value :  1.66250e-04
 Reference value :  1.66250e-04
 Reference value :  1.66250e-04
 Reference value :  1.66250e-04
 Reference value :  1.66250e-04
 Reference value :  1.66250e-04
 Reference value :  1.66250e-04
 Reference value :  1.66250e-04
 Reference value :  1.66250e-04
 Reference value :  1.66250e-04
 Reference value :  1.66250e-04
 Reference value :  1.66251e-04
 Reference value :  1.66251e-04
 Reference value :  1.66251e-04
 Reference value :  1.66252e-04
 Reference value :  1.66252e-04
 Reference value :  1.66253e-04
 Reference value :  1.66254e-04
 Reference value :  1.66255e-04
 Reference value :  1.66256e-04
 Reference value :  1.66256e-04
 Reference value :  1.66257e-04
 Reference value :  1.66258e-04
 Reference value :  1.66259e-04
 Reference value :  1.66260e-04
 Reference value :  1.66262e-04
 Reference value :  1.66263e-04
 Reference value :  1.66265e-04
 Reference value :  1.66269e-04
 Reference value :  1.66273e-04
 Reference value :  1.66282e-04
 Reference value :  1.66301e-04
 Reference value :  1.66336e-04
 Reference value :  1.66405e-04
 Reference value :  1.66500e-04
 Reference value :  1.66500e-04
 Reference value :  1.66500e-04
 Reference value :  1.66500e-04
 Reference value :  1.66500e-04
 Reference value :  1.66500e-04
 Reference value :  1.66500e-04
 Reference value :  1.66500e-04
 Reference value :  1.66500e-04
 Reference value :  1.66500e-04
 Reference value :  1.66500e-04
 Reference value :  1.66501e-04
 Reference value :  1.66501e-04
 Reference value :  1.66501e-04
 Reference value :  1.66502e-04
 Reference value :  1.66502e-04
 Reference value :  1.66503e-04
 Reference value :  1.66504e-04
 Reference value :  1.66504e-04
 Reference value :  1.66505e-04
 Reference value :  1.66506e-04
 Reference value :  1.66506e-04
 Reference value :  1.66507e-04
 Reference value :  1.66508e-04
 Reference value :  1.66508e-04
 Reference value :  1.66509e-04
 Reference value :  1.66510e-04
 Reference value :  1.66512e-04
 Reference value :  1.66513e-04
 Reference value :  1.66514e-04
 Reference value :  1.66515e-04
 Reference value :  1.66517e-04
 Reference value :  1.66518e-04
 Reference value :  1.66519e-04
 Reference value :  1.66521e-04
 Reference value :  1.66522e-04
 Reference value :  1.66523e-04
 Reference value :  1.66525e-04
 Reference value :  1.66526e-04
 Reference value :  1.66528e-04
 Reference value :  1.66531e-04
 Reference value :  1.66534e-04
 Reference value :  1.66537e-04
 Reference value :  1.66541e-04
 Reference value :  1.66544e-04
 Reference value :  1.66547e-04
 Reference value :  1.66549e-04
 Reference value :  1.66551e-04
 Reference value :  1.66554e-04
 Reference value :  1.66559e-04
 Reference value :  1.66565e-04
 Reference value :  1.66573e-04
 Reference value :  1.66586e-04
 Reference value :  1.66605e-04
 Reference value :  1.66635e-04
 Reference value :  1.66679e-04
 Reference value :  1.66747e-04
 Reference value :  1.66750e-04
 Reference value :  1.66750e-04
 Reference value :  1.66750e-04
 Reference value :  1.66750e-04
 Reference value :  1.66750e-04
 Reference value :  1.66750e-04
 Reference value :  1.66750e-04
 Reference value :  1.66750e-04
 Reference value :  1.66750e-04
 Reference value :  1.66750e-04
 Reference value :  1.66750e-04
 Reference value :  1.66750e-04
 Reference value :  1.66750e-04
 Reference value :  1.66751e-04
 Reference value :  1.66751e-04
 Reference value :  1.66751e-04
 Reference value :  1.66752e-04
 Reference value :  1.66752e-04
 Reference value :  1.66753e-04
 Reference value :  1.66754e-04
 Reference value :  1.66755e-04
 Reference value :  1.66756e-04
 Reference value :  1.66756e-04
 Reference value :  1.66757e-04
 Reference value :  1.66759e-04
 Reference value :  1.66760e-04
 Reference value :  1.66762e-04
 Reference value :  1.66765e-04
 Reference value :  1.66770e-04
 Reference value :  1.66779e-04
 Reference value :  1.66792e-04
 Reference value :  1.66819e-04
 Reference value :  1.66858e-04
 Reference value :  1.66897e-04
 Reference value :  1.66941e-04
 Reference value :  1.66971e-04
 Reference value :  1.66999e-04
 Reference value :  1.67000e-04
 Reference value :  1.67000e-04
 Reference value :  1.67000e-04
 Reference value :  1.67000e-04
 Reference value :  1.67000e-04
 Reference value :  1.67000e-04
 Reference value :  1.67000e-04
 Reference value :  1.67000e-04
 Reference value :  1.67000e-04
 Reference value :  1.67000e-04
 Reference value :  1.67000e-04
 Reference value :  1.67001e-04
 Reference value :  1.67001e-04
 Reference value :  1.67002e-04
 Reference value :  1.67002e-04
 Reference value :  1.67003e-04
 Reference value :  1.67004e-04
 Reference value :  1.67004e-04
 Reference value :  1.67005e-04
 Reference value :  1.67006e-04
 Reference value :  1.67007e-04
 Reference value :  1.67008e-04
 Reference value :  1.67009e-04
 Reference value :  1.67010e-04
 Reference value :  1.67011e-04
 Reference value :  1.67013e-04
 Reference value :  1.67014e-04
 Reference value :  1.67015e-04
 Reference value :  1.67016e-04
 Reference value :  1.67019e-04
 Reference value :  1.67023e-04
 Reference value :  1.67032e-04
 Reference value :  1.67048e-04
 Reference value :  1.67077e-04
 Reference value :  1.67123e-04
 Reference value :  1.67169e-04
 Reference value :  1.67215e-04
 Reference value :  1.67250e-04
 Reference value :  1.67250e-04
 Reference value :  1.67250e-04
 Reference value :  1.67250e-04
 Reference value :  1.67250e-04
 Reference value :  1.67250e-04
 Reference value :  1.67250e-04
 Reference value :  1.67250e-04
 Reference value :  1.67250e-04
 Reference value :  1.67250e-04
 Reference value :  1.67250e-04
 Reference value :  1.67250e-04
 Reference value :  1.67250e-04
 Reference value :  1.67251e-04
 Reference value :  1.67251e-04
 Reference value :  1.67251e-04
 Reference value :  1.67252e-04
 Reference value :  1.67252e-04
 Reference value :  1.67253e-04
 Reference value :  1.67254e-04
 Reference value :  1.67255e-04
 Reference value :  1.67255e-04
 Reference value :  1.67256e-04
 Reference value :  1.67257e-04
 Reference value :  1.67258e-04
 Reference value :  1.67259e-04
 Reference value :  1.67260e-04
 Reference value :  1.67261e-04
 Reference value :  1.67263e-04
 Reference value :  1.67265e-04
 Reference value :  1.67268e-04
 Reference value :  1.67272e-04
 Reference value :  1.67280e-04
 Reference value :  1.67295e-04
 Reference value :  1.67326e-04
 Reference value :  1.67386e-04
 Reference value :  1.67500e-04
 Reference value :  1.67500e-04
 Reference value :  1.67500e-04
 Reference value :  1.67500e-04
 Reference value :  1.67500e-04
 Reference value :  1.67500e-04
 Reference value :  1.67500e-04
 Reference value :  1.67500e-04
 Reference value :  1.67500e-04
 Reference value :  1.67500e-04
 Reference value :  1.67500e-04
 Reference value :  1.67501e-04
 Reference value :  1.67501e-04
 Reference value :  1.67501e-04
 Reference value :  1.67502e-04
 Reference value :  1.67502e-04
 Reference value :  1.67503e-04
 Reference value :  1.67504e-04
 Reference value :  1.67504e-04
 Reference value :  1.67505e-04
 Reference value :  1.67506e-04
 Reference value :  1.67506e-04
 Reference value :  1.67507e-04
 Reference value :  1.67508e-04
 Reference value :  1.67509e-04
 Reference value :  1.67510e-04
 Reference value :  1.67511e-04
 Reference value :  1.67512e-04
 Reference value :  1.67513e-04
 Reference value :  1.67514e-04
 Reference value :  1.67516e-04
 Reference value :  1.67517e-04
 Reference value :  1.67518e-04
 Reference value :  1.67519e-04
 Reference value :  1.67520e-04
 Reference value :  1.67521e-04
 Reference value :  1.67522e-04
 Reference value :  1.67523e-04
 Reference value :  1.67525e-04
 Reference value :  1.67525e-04
 Reference value :  1.67526e-04
 Reference value :  1.67528e-04
 Reference value :  1.67529e-04
 Reference value :  1.67530e-04
 Reference value :  1.67533e-04
 Reference value :  1.67537e-04
 Reference value :  1.67544e-04
 Reference value :  1.67551e-04
 Reference value :  1.67562e-04
 Reference value :  1.67573e-04
 Reference value :  1.67595e-04
 Reference value :  1.67633e-04
 Reference value :  1.67692e-04
 Reference value :  1.67750e-04
 Reference value :  1.67750e-04
 Reference value :  1.67750e-04
 Reference value :  1.67750e-04
 Reference value :  1.67750e-04
 Reference value :  1.67750e-04
 Reference value :  1.67750e-04
 Reference value :  1.67750e-04
 Reference value :  1.67750e-04
 Reference value :  1.67750e-04
 Reference value :  1.67750e-04
 Reference value :  1.67750e-04
 Reference value :  1.67750e-04
 Reference value :  1.67751e-04
 Reference value :  1.67751e-04
 Reference value :  1.67751e-04
 Reference value :  1.67752e-04
 Reference value :  1.67752e-04
 Reference value :  1.67753e-04
 Reference value :  1.67754e-04
 Reference value :  1.67755e-04
 Reference value :  1.67756e-04
 Reference value :  1.67756e-04
 Reference value :  1.67757e-04
 Reference value :  1.67759e-04
 Reference value :  1.67760e-04
 Reference value :  1.67762e-04
 Reference value :  1.67765e-04
 Reference value :  1.67770e-04
 Reference value :  1.67779e-04
 Reference value :  1.67793e-04
 Reference value :  1.67819e-04
 Reference value :  1.67865e-04
 Reference value :  1.67945e-04
 Reference value :  1.68000e-04
 Reference value :  1.68000e-04
 Reference value :  1.68000e-04
 Reference value :  1.68000e-04
 Reference value :  1.68000e-04
 Reference value :  1.68000e-04
 Reference value :  1.68000e-04
 Reference value :  1.68000e-04
 Reference value :  1.68000e-04
 Reference value :  1.68000e-04
 Reference value :  1.68000e-04
 Reference value :  1.68001e-04
 Reference value :  1.68001e-04
 Reference value :  1.68001e-04
 Reference value :  1.68002e-04
 Reference value :  1.68002e-04
 Reference value :  1.68003e-04
 Reference value :  1.68004e-04
 Reference value :  1.68004e-04
 Reference value :  1.68005e-04
 Reference value :  1.68006e-04
 Reference value :  1.68007e-04
 Reference value :  1.68008e-04
 Reference value :  1.68009e-04
 Reference value :  1.68010e-04
 Reference value :  1.68012e-04
 Reference value :  1.68013e-04
 Reference value :  1.68014e-04
 Reference value :  1.68015e-04
 Reference value :  1.68017e-04
 Reference value :  1.68020e-04
 Reference value :  1.68024e-04
 Reference value :  1.68032e-04
 Reference value :  1.68047e-04
 Reference value :  1.68073e-04
 Reference value :  1.68123e-04
 Reference value :  1.68215e-04
 Reference value :  1.68250e-04
 Reference value :  1.68250e-04
 Reference value :  1.68250e-04
 Reference value :  1.68250e-04
 Reference value :  1.68250e-04
 Reference value :  1.68250e-04
 Reference value :  1.68250e-04
 Reference value :  1.68250e-04
 Reference value :  1.68250e-04
 Reference value :  1.68250e-04
 Reference value :  1.68250e-04
 Reference value :  1.68250e-04
 Reference value :  1.68250e-04
 Reference value :  1.68251e-04
 Reference value :  1.68251e-04
 Reference value :  1.68251e-04
 Reference value :  1.68252e-04
 Reference value :  1.68252e-04
 Reference value :  1.68253e-04
 Reference value :  1.68254e-04
 Reference value :  1.68255e-04
 Reference value :  1.68256e-04
 Reference value :  1.68256e-04
 Reference value :  1.68257e-04
 Reference value :  1.68258e-04
 Reference value :  1.68259e-04
 Reference value :  1.68261e-04
 Reference value :  1.68263e-04
 Reference value :  1.68267e-04
 Reference value :  1.68273e-04
 Reference value :  1.68285e-04
 Reference value :  1.68306e-04
 Reference value :  1.68348e-04
 Reference value :  1.68431e-04
 Reference value :  1.68500e-04
 Reference value :  1.68500e-04
 Reference value :  1.68500e-04
 Reference value :  1.68500e-04
 Reference value :  1.68500e-04
 Reference value :  1.68500e-04
 Reference value :  1.68500e-04
 Reference value :  1.68500e-04
 Reference value :  1.68500e-04
 Reference value :  1.68500e-04
 Reference value :  1.68500e-04
 Reference value :  1.68501e-04
 Reference value :  1.68501e-04
 Reference value :  1.68501e-04
 Reference value :  1.68502e-04
 Reference value :  1.68502e-04
 Reference value :  1.68503e-04
 Reference value :  1.68504e-04
 Reference value :  1.68504e-04
 Reference value :  1.68505e-04
 Reference value :  1.68506e-04
 Reference value :  1.68507e-04
 Reference value :  1.68507e-04
 Reference value :  1.68508e-04
 Reference value :  1.68509e-04
 Reference value :  1.68510e-04
 Reference value :  1.68511e-04
 Reference value :  1.68514e-04
 Reference value :  1.68516e-04
 Reference value :  1.68518e-04
 Reference value :  1.68520e-04
 Reference value :  1.68521e-04
 Reference value :  1.68523e-04
 Reference value :  1.68524e-04
 Reference value :  1.68526e-04
 Reference value :  1.68528e-04
 Reference value :  1.68530e-04
 Reference value :  1.68534e-04
 Reference value :  1.68540e-04
 Reference value :  1.68547e-04
 Reference value :  1.68556e-04
 Reference value :  1.68572e-04
 Reference value :  1.68594e-04
 Reference value :  1.68638e-04
 Reference value :  1.68697e-04
 Reference value :  1.68750e-04
 Reference value :  1.68750e-04
 Reference value :  1.68750e-04
 Reference value :  1.68750e-04
 Reference value :  1.68750e-04
 Reference value :  1.68750e-04
 Reference value :  1.68750e-04
 Reference value :  1.68750e-04
 Reference value :  1.68750e-04
 Reference value :  1.68750e-04
 Reference value :  1.68750e-04
 Reference value :  1.68750e-04
 Reference value :  1.68750e-04
 Reference value :  1.68751e-04
 Reference value :  1.68751e-04
 Reference value :  1.68751e-04
 Reference value :  1.68752e-04
 Reference value :  1.68752e-04
 Reference value :  1.68753e-04
 Reference value :  1.68754e-04
 Reference value :  1.68755e-04
 Reference value :  1.68755e-04
 Reference value :  1.68756e-04
 Reference value :  1.68757e-04
 Reference value :  1.68758e-04
 Reference value :  1.68760e-04
 Reference value :  1.68762e-04
 Reference value :  1.68765e-04
 Reference value :  1.68769e-04
 Reference value :  1.68776e-04
 Reference value :  1.68790e-04
 Reference value :  1.68814e-04
 Reference value :  1.68857e-04
 Reference value :  1.68944e-04
 Reference value :  1.69000e-04
 Reference value :  1.69000e-04
 Reference value :  1.69000e-04
 Reference value :  1.69000e-04
 Reference value :  1.69000e-04
 Reference value :  1.69000e-04
 Reference value :  1.69000e-04
 Reference value :  1.69000e-04
 Reference value :  1.69000e-04
 Reference value :  1.69000e-04
 Reference value :  1.69000e-04
 Reference value :  1.69001e-04
 Reference value :  1.69001e-04
 Reference value :  1.69001e-04
 Reference value :  1.69002e-04
 Reference value :  1.69002e-04
 Reference value :  1.69003e-04
 Reference value :  1.69004e-04
 Reference value :  1.69004e-04
 Reference value :  1.69005e-04
 Reference value :  1.69006e-04
 Reference value :  1.69007e-04
 Reference value :  1.69008e-04
 Reference value :  1.69009e-04
 Reference value :  1.69010e-04
 Reference value :  1.69012e-04
 Reference value :  1.69013e-04
 Reference value :  1.69014e-04
 Reference value :  1.69015e-04
 Reference value :  1.69016e-04
 Reference value :  1.69019e-04
 Reference value :  1.69024e-04
 Reference value :  1.69033e-04
 Reference value :  1.69051e-04
 Reference value :  1.69086e-04
 Reference value :  1.69156e-04
 Reference value :  1.69250e-04
 Reference value :  1.69250e-04
 Reference value :  1.69250e-04
 Reference value :  1.69250e-04
 Reference value :  1.69250e-04
 Reference value :  1.69250e-04
 Reference value :  1.69250e-04
 Reference value :  1.69250e-04
 Reference value :  1.69250e-04
 Reference value :  1.69250e-04
 Reference value :  1.69250e-04
 Reference value :  1.69250e-04
 Reference value :  1.69250e-04
 Reference value :  1.69251e-04
 Reference value :  1.69251e-04
 Reference value :  1.69251e-04
 Reference value :  1.69252e-04
 Reference value :  1.69252e-04
 Reference value :  1.69253e-04
 Reference value :  1.69254e-04
 Reference value :  1.69255e-04
 Reference value :  1.69255e-04
 Reference value :  1.69256e-04
 Reference value :  1.69257e-04
 Reference value :  1.69258e-04
 Reference value :  1.69259e-04
 Reference value :  1.69261e-04
 Reference value :  1.69263e-04
 Reference value :  1.69266e-04
 Reference value :  1.69272e-04
 Reference value :  1.69284e-04
 Reference value :  1.69305e-04
 Reference value :  1.69345e-04
 Reference value :  1.69426e-04
 Reference value :  1.69500e-04
 Reference value :  1.69500e-04
 Reference value :  1.69500e-04
 Reference value :  1.69500e-04
 Reference value :  1.69500e-04
 Reference value :  1.69500e-04
 Reference value :  1.69500e-04
 Reference value :  1.69500e-04
 Reference value :  1.69500e-04
 Reference value :  1.69500e-04
 Reference value :  1.69500e-04
 Reference value :  1.69501e-04
 Reference value :  1.69501e-04
 Reference value :  1.69501e-04
 Reference value :  1.69502e-04
 Reference value :  1.69502e-04
 Reference value :  1.69503e-04
 Reference value :  1.69504e-04
 Reference value :  1.69504e-04
 Reference value :  1.69505e-04
 Reference value :  1.69506e-04
 Reference value :  1.69507e-04
 Reference value :  1.69507e-04
 Reference value :  1.69508e-04
 Reference value :  1.69509e-04
 Reference value :  1.69510e-04
 Reference value :  1.69512e-04
 Reference value :  1.69514e-04
 Reference value :  1.69517e-04
 Reference value :  1.69518e-04
 Reference value :  1.69521e-04
 Reference value :  1.69523e-04
 Reference value :  1.69526e-04
 Reference value :  1.69530e-04
 Reference value :  1.69536e-04
 Reference value :  1.69545e-04
 Reference value :  1.69559e-04
 Reference value :  1.69582e-04
 Reference value :  1.69621e-04
 Reference value :  1.69699e-04
 Reference value :  1.69750e-04
 Reference value :  1.69750e-04
 Reference value :  1.69750e-04
 Reference value :  1.69750e-04
 Reference value :  1.69750e-04
 Reference value :  1.69750e-04
 Reference value :  1.69750e-04
 Reference value :  1.69750e-04
 Reference value :  1.69750e-04
 Reference value :  1.69750e-04
 Reference value :  1.69750e-04
 Reference value :  1.69750e-04
 Reference value :  1.69750e-04
 Reference value :  1.69751e-04
 Reference value :  1.69751e-04
 Reference value :  1.69751e-04
 Reference value :  1.69752e-04
 Reference value :  1.69752e-04
 Reference value :  1.69753e-04
 Reference value :  1.69754e-04
 Reference value :  1.69755e-04
 Reference value :  1.69756e-04
 Reference value :  1.69757e-04
 Reference value :  1.69759e-04
 Reference value :  1.69761e-04
 Reference value :  1.69763e-04
 Reference value :  1.69766e-04
 Reference value :  1.69771e-04
 Reference value :  1.69780e-04
 Reference value :  1.69798e-04
 Reference value :  1.69834e-04
 Reference value :  1.69907e-04
 Reference value :  1.70000e-04
No. of Data Rows : 26666
ngspice-44 done
