
Note: Compatibility modes selected: hs a


Circuit: ** sch_path: /home/ece/cace/sar-adc-using-sky130-pdk/runs/run_2025-09-11_18-12-24/parameters/dnl/run_0/sar_output_dnl.sch

option SCALE: Scale is set to 1e-06 for instance and model parameters
option SCALE: Scale is set to 1e-06 for instance and model parameters
option SCALE: Scale is set to 1e-06 for instance and model parameters
option SCALE: Scale is set to 1e-06 for instance and model parameters
Doing analysis at TEMP = 27.000000 and TNOM = 27.000000

Using KLU as Direct Linear Solver
Operating point simulation skipped by 'uic',
  now using transient initial conditions.
 Reference value :  1.00000e-12
 Reference value :  1.02772e-12
 Reference value :  1.08316e-12
 Reference value :  1.19404e-12
 Reference value :  1.33846e-12
 Reference value :  1.62729e-12
 Reference value :  2.20497e-12
 Reference value :  3.05948e-12
 Reference value :  3.96241e-12
 Reference value :  5.17564e-12
 Reference value :  6.89191e-12
 Reference value :  1.02397e-11
 Reference value :  1.40775e-11
 Reference value :  2.08902e-11
 Reference value :  2.76242e-11
 Reference value :  3.66964e-11
 Reference value :  4.79699e-11
 Reference value :  6.55251e-11
 Reference value :  8.61232e-11
 Reference value :  1.00000e-10
 Reference value :  1.01166e-10
 Reference value :  1.03499e-10
 Reference value :  1.08164e-10
 Reference value :  1.17494e-10
 Reference value :  1.36154e-10
 Reference value :  1.73475e-10
 Reference value :  2.48116e-10
 Reference value :  3.97398e-10
 Reference value :  5.57091e-10
 Reference value :  8.17225e-10
 Reference value :  1.16180e-09
 Reference value :  1.58633e-09
 Reference value :  2.23703e-09
 Reference value :  2.99238e-09
 Reference value :  3.83552e-09
 Reference value :  4.67449e-09
 Reference value :  5.54376e-09
 Reference value :  6.75775e-09
 Reference value :  7.96368e-09
 Reference value :  9.16572e-09
 Reference value :  9.99478e-09
 Reference value :  1.08131e-08
 Reference value :  1.16964e-08
 Reference value :  1.26492e-08
 Reference value :  1.45549e-08
 Reference value :  1.70474e-08
 Reference value :  2.09609e-08
 Reference value :  2.52771e-08
 Reference value :  2.88678e-08
 Reference value :  3.25606e-08
 Reference value :  3.55744e-08
 Reference value :  3.87256e-08
 Reference value :  4.25217e-08
 Reference value :  4.83723e-08
 Reference value :  5.70049e-08
 Reference value :  7.11958e-08
 Reference value :  9.56558e-08
 Reference value :  1.43264e-07
 Reference value :  2.06258e-07
 Reference value :  2.50100e-07
 Reference value :  2.50110e-07
 Reference value :  2.50130e-07
 Reference value :  2.50170e-07
 Reference value :  2.50200e-07
 Reference value :  2.50201e-07
 Reference value :  2.50202e-07
 Reference value :  2.50204e-07
 Reference value :  2.50208e-07
 Reference value :  2.50216e-07
 Reference value :  2.50233e-07
 Reference value :  2.50266e-07
 Reference value :  2.50332e-07
 Reference value :  2.50408e-07
 Reference value :  2.50559e-07
 Reference value :  2.50706e-07
 Reference value :  2.51000e-07
 Reference value :  2.51329e-07
 Reference value :  2.51814e-07
 Reference value :  2.52369e-07
 Reference value :  2.52973e-07
 Reference value :  2.53861e-07
 Reference value :  2.54730e-07
 Reference value :  2.55539e-07
 Reference value :  2.56397e-07
 Reference value :  2.57284e-07
 Reference value :  2.58159e-07
 Reference value :  2.59693e-07
 Reference value :  2.61760e-07
 Reference value :  2.63982e-07
 Reference value :  2.67676e-07
 Reference value :  2.73181e-07
 Reference value :  2.84192e-07
 Reference value :  3.06213e-07
 Reference value :  3.46172e-07
 Reference value :  4.26090e-07
 Reference value :  5.00000e-07
 Reference value :  5.00010e-07
 Reference value :  5.00030e-07
 Reference value :  5.00070e-07
 Reference value :  5.00100e-07
 Reference value :  5.00104e-07
 Reference value :  5.00113e-07
 Reference value :  5.00130e-07
 Reference value :  5.00163e-07
 Reference value :  5.00231e-07
 Reference value :  5.00366e-07
 Reference value :  5.00553e-07
 Reference value :  5.00927e-07
 Reference value :  5.01510e-07
 Reference value :  5.02040e-07
 Reference value :  5.02609e-07
 Reference value :  5.03288e-07
 Reference value :  5.04079e-07
 Reference value :  5.04828e-07
 Reference value :  5.05642e-07
 Reference value :  5.06668e-07
 Reference value :  5.07755e-07
 Reference value :  5.09486e-07
 Reference value :  5.12227e-07
 Reference value :  5.14062e-07
 Reference value :  5.16137e-07
 Reference value :  5.18338e-07
 Reference value :  5.20723e-07
 Reference value :  5.23450e-07
 Reference value :  5.27988e-07
 Reference value :  5.34633e-07
 Reference value :  5.45822e-07
 Reference value :  5.65435e-07
 Reference value :  5.98748e-07
 Reference value :  6.59307e-07
 Reference value :  7.50100e-07
 Reference value :  7.50110e-07
 Reference value :  7.50130e-07
 Reference value :  7.50170e-07
 Reference value :  7.50200e-07
 Reference value :  7.50201e-07
 Reference value :  7.50202e-07
 Reference value :  7.50205e-07
 Reference value :  7.50211e-07
 Reference value :  7.50223e-07
 Reference value :  7.50247e-07
 Reference value :  7.50295e-07
 Reference value :  7.50390e-07
 Reference value :  7.50580e-07
 Reference value :  7.50954e-07
 Reference value :  7.51429e-07
 Reference value :  7.51992e-07
 Reference value :  7.52594e-07
 Reference value :  7.53250e-07
 Reference value :  7.54105e-07
 Reference value :  7.54725e-07
 Reference value :  7.55452e-07
 Reference value :  7.56121e-07
 Reference value :  7.56853e-07
 Reference value :  7.57765e-07
 Reference value :  7.58760e-07
 Reference value :  7.60750e-07
 Reference value :  7.62908e-07
 Reference value :  7.66537e-07
 Reference value :  7.71134e-07
 Reference value :  7.80328e-07
 Reference value :  7.98716e-07
 Reference value :  8.35491e-07
 Reference value :  9.09042e-07
 Reference value :  1.00000e-06
 Reference value :  1.00001e-06
 Reference value :  1.00003e-06
 Reference value :  1.00007e-06
 Reference value :  1.00010e-06
 Reference value :  1.00010e-06
 Reference value :  1.00011e-06
 Reference value :  1.00013e-06
 Reference value :  1.00016e-06
 Reference value :  1.00023e-06
 Reference value :  1.00036e-06
 Reference value :  1.00055e-06
 Reference value :  1.00092e-06
 Reference value :  1.00145e-06
 Reference value :  1.00198e-06
 Reference value :  1.00255e-06
 Reference value :  1.00322e-06
 Reference value :  1.00397e-06
 Reference value :  1.00472e-06
 Reference value :  1.00541e-06
 Reference value :  1.00613e-06
 Reference value :  1.00694e-06
 Reference value :  1.00770e-06
 Reference value :  1.00853e-06
 Reference value :  1.00971e-06
 Reference value :  1.01103e-06
 Reference value :  1.01329e-06
 Reference value :  1.01571e-06
 Reference value :  1.01765e-06
 Reference value :  1.01939e-06
 Reference value :  1.02066e-06
 Reference value :  1.02205e-06
 Reference value :  1.02362e-06
 Reference value :  1.02517e-06
 Reference value :  1.02703e-06
 Reference value :  1.02974e-06
 Reference value :  1.03265e-06
 Reference value :  1.03847e-06
 Reference value :  1.04760e-06
 Reference value :  1.06256e-06
 Reference value :  1.08252e-06
 Reference value :  1.10481e-06
 Reference value :  1.11798e-06
 Reference value :  1.13007e-06
 Reference value :  1.13731e-06
 Reference value :  1.14584e-06
 Reference value :  1.15247e-06
 Reference value :  1.16062e-06
 Reference value :  1.16964e-06
 Reference value :  1.18355e-06
 Reference value :  1.20179e-06
 Reference value :  1.22770e-06
 Reference value :  1.25010e-06
 Reference value :  1.25011e-06
 Reference value :  1.25013e-06
 Reference value :  1.25017e-06
 Reference value :  1.25020e-06
 Reference value :  1.25020e-06
 Reference value :  1.25020e-06
 Reference value :  1.25021e-06
 Reference value :  1.25021e-06
 Reference value :  1.25022e-06
 Reference value :  1.25025e-06
 Reference value :  1.25029e-06
 Reference value :  1.25039e-06
 Reference value :  1.25057e-06
 Reference value :  1.25090e-06
 Reference value :  1.25140e-06
 Reference value :  1.25202e-06
 Reference value :  1.25261e-06
 Reference value :  1.25328e-06
 Reference value :  1.25410e-06
 Reference value :  1.25469e-06
 Reference value :  1.25538e-06
 Reference value :  1.25624e-06
 Reference value :  1.25716e-06
 Reference value :  1.25821e-06
 Reference value :  1.26008e-06
 Reference value :  1.26200e-06
 Reference value :  1.26506e-06
 Reference value :  1.26891e-06
 Reference value :  1.27661e-06
 Reference value :  1.29202e-06
 Reference value :  1.32283e-06
 Reference value :  1.38445e-06
 Reference value :  1.50000e-06
 Reference value :  1.50001e-06
 Reference value :  1.50003e-06
 Reference value :  1.50007e-06
 Reference value :  1.50010e-06
 Reference value :  1.50010e-06
 Reference value :  1.50011e-06
 Reference value :  1.50013e-06
 Reference value :  1.50016e-06
 Reference value :  1.50023e-06
 Reference value :  1.50037e-06
 Reference value :  1.50054e-06
 Reference value :  1.50090e-06
 Reference value :  1.50140e-06
 Reference value :  1.50191e-06
 Reference value :  1.50242e-06
 Reference value :  1.50304e-06
 Reference value :  1.50370e-06
 Reference value :  1.50457e-06
 Reference value :  1.50538e-06
 Reference value :  1.50630e-06
 Reference value :  1.50760e-06
 Reference value :  1.50904e-06
 Reference value :  1.51043e-06
 Reference value :  1.51184e-06
 Reference value :  1.51314e-06
 Reference value :  1.51457e-06
 Reference value :  1.51599e-06
 Reference value :  1.51762e-06
 Reference value :  1.52090e-06
 Reference value :  1.52653e-06
 Reference value :  1.53729e-06
 Reference value :  1.55881e-06
 Reference value :  1.60183e-06
 Reference value :  1.68789e-06
 Reference value :  1.75010e-06
 Reference value :  1.75011e-06
 Reference value :  1.75013e-06
 Reference value :  1.75017e-06
 Reference value :  1.75020e-06
 Reference value :  1.75020e-06
 Reference value :  1.75020e-06
 Reference value :  1.75021e-06
 Reference value :  1.75021e-06
 Reference value :  1.75022e-06
 Reference value :  1.75025e-06
 Reference value :  1.75029e-06
 Reference value :  1.75039e-06
 Reference value :  1.75058e-06
 Reference value :  1.75091e-06
 Reference value :  1.75141e-06
 Reference value :  1.75204e-06
 Reference value :  1.75262e-06
 Reference value :  1.75330e-06
 Reference value :  1.75415e-06
 Reference value :  1.75475e-06
 Reference value :  1.75545e-06
 Reference value :  1.75614e-06
 Reference value :  1.75688e-06
 Reference value :  1.75785e-06
 Reference value :  1.75890e-06
 Reference value :  1.76008e-06
 Reference value :  1.76151e-06
 Reference value :  1.76362e-06
 Reference value :  1.76564e-06
 Reference value :  1.76927e-06
 Reference value :  1.77381e-06
 Reference value :  1.78288e-06
 Reference value :  1.80102e-06
 Reference value :  1.83731e-06
 Reference value :  1.90987e-06
 Reference value :  2.00000e-06
 Reference value :  2.00001e-06
 Reference value :  2.00003e-06
 Reference value :  2.00007e-06
 Reference value :  2.00010e-06
 Reference value :  2.00010e-06
 Reference value :  2.00011e-06
 Reference value :  2.00013e-06
 Reference value :  2.00016e-06
 Reference value :  2.00023e-06
 Reference value :  2.00036e-06
 Reference value :  2.00054e-06
 Reference value :  2.00089e-06
 Reference value :  2.00139e-06
 Reference value :  2.00190e-06
 Reference value :  2.00243e-06
 Reference value :  2.00309e-06
 Reference value :  2.00375e-06
 Reference value :  2.00452e-06
 Reference value :  2.00515e-06
 Reference value :  2.00585e-06
 Reference value :  2.00653e-06
 Reference value :  2.00722e-06
 Reference value :  2.00797e-06
 Reference value :  2.00886e-06
 Reference value :  2.00988e-06
 Reference value :  2.01149e-06
 Reference value :  2.01378e-06
 Reference value :  2.01532e-06
 Reference value :  2.01706e-06
 Reference value :  2.01870e-06
 Reference value :  2.01995e-06
 Reference value :  2.02112e-06
 Reference value :  2.02221e-06
 Reference value :  2.02347e-06
 Reference value :  2.02497e-06
 Reference value :  2.02647e-06
 Reference value :  2.02900e-06
 Reference value :  2.03202e-06
 Reference value :  2.03808e-06
 Reference value :  2.04941e-06
 Reference value :  2.06775e-06
 Reference value :  2.10428e-06
 Reference value :  2.14236e-06
 Reference value :  2.17853e-06
 Reference value :  2.20247e-06
 Reference value :  2.22576e-06
 Reference value :  2.24758e-06
 Reference value :  2.25010e-06
 Reference value :  2.25011e-06
 Reference value :  2.25013e-06
 Reference value :  2.25017e-06
 Reference value :  2.25020e-06
 Reference value :  2.25020e-06
 Reference value :  2.25020e-06
 Reference value :  2.25021e-06
 Reference value :  2.25021e-06
 Reference value :  2.25022e-06
 Reference value :  2.25025e-06
 Reference value :  2.25029e-06
 Reference value :  2.25039e-06
 Reference value :  2.25057e-06
 Reference value :  2.25090e-06
 Reference value :  2.25139e-06
 Reference value :  2.25202e-06
 Reference value :  2.25260e-06
 Reference value :  2.25328e-06
 Reference value :  2.25412e-06
 Reference value :  2.25474e-06
 Reference value :  2.25545e-06
 Reference value :  2.25637e-06
 Reference value :  2.25723e-06
 Reference value :  2.25835e-06
 Reference value :  2.26035e-06
 Reference value :  2.26229e-06
 Reference value :  2.26554e-06
 Reference value :  2.26951e-06
 Reference value :  2.27747e-06
 Reference value :  2.29337e-06
 Reference value :  2.32518e-06
 Reference value :  2.37989e-06
 Reference value :  2.43874e-06
 Reference value :  2.50000e-06
 Reference value :  2.50001e-06
 Reference value :  2.50003e-06
 Reference value :  2.50007e-06
 Reference value :  2.50010e-06
 Reference value :  2.50010e-06
 Reference value :  2.50011e-06
 Reference value :  2.50013e-06
 Reference value :  2.50016e-06
 Reference value :  2.50023e-06
 Reference value :  2.50036e-06
 Reference value :  2.50054e-06
 Reference value :  2.50089e-06
 Reference value :  2.50139e-06
 Reference value :  2.50190e-06
 Reference value :  2.50244e-06
 Reference value :  2.50310e-06
 Reference value :  2.50375e-06
 Reference value :  2.50451e-06
 Reference value :  2.50537e-06
 Reference value :  2.50619e-06
 Reference value :  2.50749e-06
 Reference value :  2.50881e-06
 Reference value :  2.51007e-06
 Reference value :  2.51136e-06
 Reference value :  2.51299e-06
 Reference value :  2.51447e-06
 Reference value :  2.51619e-06
 Reference value :  2.51799e-06
 Reference value :  2.52159e-06
 Reference value :  2.52850e-06
 Reference value :  2.53993e-06
 Reference value :  2.56280e-06
 Reference value :  2.60853e-06
 Reference value :  2.69999e-06
 Reference value :  2.75010e-06
 Reference value :  2.75011e-06
 Reference value :  2.75013e-06
 Reference value :  2.75017e-06
 Reference value :  2.75020e-06
 Reference value :  2.75020e-06
 Reference value :  2.75020e-06
 Reference value :  2.75021e-06
 Reference value :  2.75021e-06
 Reference value :  2.75022e-06
 Reference value :  2.75025e-06
 Reference value :  2.75029e-06
 Reference value :  2.75039e-06
 Reference value :  2.75058e-06
 Reference value :  2.75091e-06
 Reference value :  2.75140e-06
 Reference value :  2.75198e-06
 Reference value :  2.75258e-06
 Reference value :  2.75323e-06
 Reference value :  2.75406e-06
 Reference value :  2.75468e-06
 Reference value :  2.75539e-06
 Reference value :  2.75604e-06
 Reference value :  2.75677e-06
 Reference value :  2.75766e-06
 Reference value :  2.75866e-06
 Reference value :  2.76065e-06
 Reference value :  2.76275e-06
 Reference value :  2.76630e-06
 Reference value :  2.77066e-06
 Reference value :  2.77939e-06
 Reference value :  2.79684e-06
 Reference value :  2.83174e-06
 Reference value :  2.90154e-06
 Reference value :  3.00000e-06
 Reference value :  3.00001e-06
 Reference value :  3.00003e-06
 Reference value :  3.00007e-06
 Reference value :  3.00010e-06
 Reference value :  3.00010e-06
 Reference value :  3.00011e-06
 Reference value :  3.00013e-06
 Reference value :  3.00016e-06
 Reference value :  3.00023e-06
 Reference value :  3.00036e-06
 Reference value :  3.00054e-06
 Reference value :  3.00089e-06
 Reference value :  3.00139e-06
 Reference value :  3.00190e-06
 Reference value :  3.00243e-06
 Reference value :  3.00310e-06
 Reference value :  3.00375e-06
 Reference value :  3.00453e-06
 Reference value :  3.00519e-06
 Reference value :  3.00590e-06
 Reference value :  3.00677e-06
 Reference value :  3.00753e-06
 Reference value :  3.00833e-06
 Reference value :  3.00949e-06
 Reference value :  3.01055e-06
 Reference value :  3.01259e-06
 Reference value :  3.01495e-06
 Reference value :  3.01681e-06
 Reference value :  3.01885e-06
 Reference value :  3.02021e-06
 Reference value :  3.02175e-06
 Reference value :  3.02313e-06
 Reference value :  3.02458e-06
 Reference value :  3.02629e-06
 Reference value :  3.02860e-06
 Reference value :  3.03104e-06
 Reference value :  3.03516e-06
 Reference value :  3.03876e-06
 Reference value :  3.04250e-06
 Reference value :  3.04656e-06
 Reference value :  3.04975e-06
 Reference value :  3.05365e-06
 Reference value :  3.05654e-06
 Reference value :  3.05977e-06
 Reference value :  3.06471e-06
 Reference value :  3.06915e-06
 Reference value :  3.07498e-06
 Reference value :  3.08125e-06
 Reference value :  3.08732e-06
 Reference value :  3.09448e-06
 Reference value :  3.10880e-06
 Reference value :  3.12678e-06
 Reference value :  3.15775e-06
 Reference value :  3.19911e-06
 Reference value :  3.24180e-06
 Reference value :  3.25010e-06
 Reference value :  3.25011e-06
 Reference value :  3.25013e-06
 Reference value :  3.25017e-06
 Reference value :  3.25020e-06
 Reference value :  3.25020e-06
 Reference value :  3.25020e-06
 Reference value :  3.25021e-06
 Reference value :  3.25021e-06
 Reference value :  3.25022e-06
 Reference value :  3.25025e-06
 Reference value :  3.25029e-06
 Reference value :  3.25039e-06
 Reference value :  3.25057e-06
 Reference value :  3.25090e-06
 Reference value :  3.25139e-06
 Reference value :  3.25202e-06
 Reference value :  3.25260e-06
 Reference value :  3.25328e-06
 Reference value :  3.25412e-06
 Reference value :  3.25472e-06
 Reference value :  3.25540e-06
 Reference value :  3.25624e-06
 Reference value :  3.25720e-06
 Reference value :  3.25820e-06
 Reference value :  3.26020e-06
 Reference value :  3.26210e-06
 Reference value :  3.26526e-06
 Reference value :  3.26909e-06
 Reference value :  3.27677e-06
 Reference value :  3.29211e-06
 Reference value :  3.32280e-06
 Reference value :  3.38418e-06
 Reference value :  3.50000e-06
 Reference value :  3.50001e-06
 Reference value :  3.50003e-06
 Reference value :  3.50007e-06
 Reference value :  3.50010e-06
 Reference value :  3.50010e-06
 Reference value :  3.50011e-06
 Reference value :  3.50013e-06
 Reference value :  3.50016e-06
 Reference value :  3.50023e-06
 Reference value :  3.50037e-06
 Reference value :  3.50054e-06
 Reference value :  3.50090e-06
 Reference value :  3.50140e-06
 Reference value :  3.50191e-06
 Reference value :  3.50242e-06
 Reference value :  3.50304e-06
 Reference value :  3.50370e-06
 Reference value :  3.50456e-06
 Reference value :  3.50535e-06
 Reference value :  3.50629e-06
 Reference value :  3.50742e-06
 Reference value :  3.50872e-06
 Reference value :  3.50987e-06
 Reference value :  3.51106e-06
 Reference value :  3.51249e-06
 Reference value :  3.51408e-06
 Reference value :  3.51568e-06
 Reference value :  3.51758e-06
 Reference value :  3.52102e-06
 Reference value :  3.52603e-06
 Reference value :  3.53573e-06
 Reference value :  3.55407e-06
 Reference value :  3.58805e-06
 Reference value :  3.65601e-06
 Reference value :  3.75010e-06
 Reference value :  3.75011e-06
 Reference value :  3.75013e-06
 Reference value :  3.75017e-06
 Reference value :  3.75020e-06
 Reference value :  3.75020e-06
 Reference value :  3.75020e-06
 Reference value :  3.75021e-06
 Reference value :  3.75021e-06
 Reference value :  3.75022e-06
 Reference value :  3.75025e-06
 Reference value :  3.75029e-06
 Reference value :  3.75039e-06
 Reference value :  3.75058e-06
 Reference value :  3.75091e-06
 Reference value :  3.75140e-06
 Reference value :  3.75198e-06
 Reference value :  3.75258e-06
 Reference value :  3.75322e-06
 Reference value :  3.75407e-06
 Reference value :  3.75468e-06
 Reference value :  3.75540e-06
 Reference value :  3.75605e-06
 Reference value :  3.75677e-06
 Reference value :  3.75767e-06
 Reference value :  3.75868e-06
 Reference value :  3.75967e-06
 Reference value :  3.76119e-06
 Reference value :  3.76283e-06
 Reference value :  3.76512e-06
 Reference value :  3.76792e-06
 Reference value :  3.77214e-06
 Reference value :  3.78057e-06
 Reference value :  3.79519e-06
 Reference value :  3.82445e-06
 Reference value :  3.88296e-06
 Reference value :  3.99998e-06
 Reference value :  4.00000e-06
 Reference value :  4.00000e-06
 Reference value :  4.00000e-06
 Reference value :  4.00000e-06
 Reference value :  4.00001e-06
 Reference value :  4.00001e-06
 Reference value :  4.00003e-06
 Reference value :  4.00006e-06
 Reference value :  4.00010e-06
 Reference value :  4.00011e-06
 Reference value :  4.00012e-06
 Reference value :  4.00014e-06
 Reference value :  4.00019e-06
 Reference value :  4.00029e-06
 Reference value :  4.00043e-06
 Reference value :  4.00069e-06
 Reference value :  4.00115e-06
 Reference value :  4.00163e-06
 Reference value :  4.00221e-06
 Reference value :  4.00280e-06
 Reference value :  4.00343e-06
 Reference value :  4.00409e-06
 Reference value :  4.00483e-06
 Reference value :  4.00553e-06
 Reference value :  4.00626e-06
 Reference value :  4.00704e-06
 Reference value :  4.00787e-06
 Reference value :  4.00869e-06
 Reference value :  4.00983e-06
 Reference value :  4.01128e-06
 Reference value :  4.01245e-06
 Reference value :  4.01373e-06
 Reference value :  4.01500e-06
 Reference value :  4.01645e-06
 Reference value :  4.01778e-06
 Reference value :  4.01879e-06
 Reference value :  4.01977e-06
 Reference value :  4.02098e-06
 Reference value :  4.02209e-06
 Reference value :  4.02325e-06
 Reference value :  4.02468e-06
 Reference value :  4.02631e-06
 Reference value :  4.02860e-06
 Reference value :  4.03165e-06
 Reference value :  4.03777e-06
 Reference value :  4.04745e-06
 Reference value :  4.06453e-06
 Reference value :  4.08588e-06
 Reference value :  4.10583e-06
 Reference value :  4.12720e-06
 Reference value :  4.14296e-06
 Reference value :  4.15529e-06
 Reference value :  4.16875e-06
 Reference value :  4.18485e-06
 Reference value :  4.20062e-06
 Reference value :  4.23215e-06
 Reference value :  4.25010e-06
 Reference value :  4.25011e-06
 Reference value :  4.25013e-06
 Reference value :  4.25017e-06
 Reference value :  4.25020e-06
 Reference value :  4.25020e-06
 Reference value :  4.25020e-06
 Reference value :  4.25021e-06
 Reference value :  4.25021e-06
 Reference value :  4.25022e-06
 Reference value :  4.25025e-06
 Reference value :  4.25029e-06
 Reference value :  4.25039e-06
 Reference value :  4.25057e-06
 Reference value :  4.25090e-06
 Reference value :  4.25139e-06
 Reference value :  4.25201e-06
 Reference value :  4.25260e-06
 Reference value :  4.25327e-06
 Reference value :  4.25411e-06
 Reference value :  4.25471e-06
 Reference value :  4.25540e-06
 Reference value :  4.25629e-06
 Reference value :  4.25715e-06
 Reference value :  4.25824e-06
 Reference value :  4.26028e-06
 Reference value :  4.26217e-06
 Reference value :  4.26534e-06
 Reference value :  4.26920e-06
 Reference value :  4.27692e-06
 Reference value :  4.29235e-06
 Reference value :  4.32322e-06
 Reference value :  4.38496e-06
 Reference value :  4.50000e-06
 Reference value :  4.50001e-06
 Reference value :  4.50003e-06
 Reference value :  4.50007e-06
 Reference value :  4.50010e-06
 Reference value :  4.50010e-06
 Reference value :  4.50011e-06
 Reference value :  4.50013e-06
 Reference value :  4.50016e-06
 Reference value :  4.50023e-06
 Reference value :  4.50037e-06
 Reference value :  4.50054e-06
 Reference value :  4.50090e-06
 Reference value :  4.50139e-06
 Reference value :  4.50191e-06
 Reference value :  4.50242e-06
 Reference value :  4.50304e-06
 Reference value :  4.50369e-06
 Reference value :  4.50456e-06
 Reference value :  4.50534e-06
 Reference value :  4.50628e-06
 Reference value :  4.50743e-06
 Reference value :  4.50870e-06
 Reference value :  4.50990e-06
 Reference value :  4.51112e-06
 Reference value :  4.51229e-06
 Reference value :  4.51361e-06
 Reference value :  4.51493e-06
 Reference value :  4.51644e-06
 Reference value :  4.51946e-06
 Reference value :  4.52550e-06
 Reference value :  4.53608e-06
 Reference value :  4.55722e-06
 Reference value :  4.59952e-06
 Reference value :  4.68410e-06
 Reference value :  4.75010e-06
 Reference value :  4.75011e-06
 Reference value :  4.75013e-06
 Reference value :  4.75017e-06
 Reference value :  4.75020e-06
 Reference value :  4.75020e-06
 Reference value :  4.75020e-06
 Reference value :  4.75021e-06
 Reference value :  4.75021e-06
 Reference value :  4.75022e-06
 Reference value :  4.75025e-06
 Reference value :  4.75029e-06
 Reference value :  4.75039e-06
 Reference value :  4.75058e-06
 Reference value :  4.75091e-06
 Reference value :  4.75140e-06
 Reference value :  4.75204e-06
 Reference value :  4.75261e-06
 Reference value :  4.75330e-06
 Reference value :  4.75415e-06
 Reference value :  4.75476e-06
 Reference value :  4.75546e-06
 Reference value :  4.75615e-06
 Reference value :  4.75689e-06
 Reference value :  4.75786e-06
 Reference value :  4.75891e-06
 Reference value :  4.76015e-06
 Reference value :  4.76155e-06
 Reference value :  4.76353e-06
 Reference value :  4.76561e-06
 Reference value :  4.76918e-06
 Reference value :  4.77385e-06
 Reference value :  4.78319e-06
 Reference value :  4.80186e-06
 Reference value :  4.83921e-06
 Reference value :  4.91390e-06
 Reference value :  5.00000e-06
 Reference value :  5.00001e-06
 Reference value :  5.00003e-06
 Reference value :  5.00007e-06
 Reference value :  5.00010e-06
 Reference value :  5.00010e-06
 Reference value :  5.00011e-06
 Reference value :  5.00013e-06
 Reference value :  5.00016e-06
 Reference value :  5.00023e-06
 Reference value :  5.00036e-06
 Reference value :  5.00054e-06
 Reference value :  5.00089e-06
 Reference value :  5.00138e-06
 Reference value :  5.00189e-06
 Reference value :  5.00243e-06
 Reference value :  5.00309e-06
 Reference value :  5.00374e-06
 Reference value :  5.00451e-06
 Reference value :  5.00514e-06
 Reference value :  5.00584e-06
 Reference value :  5.00652e-06
 Reference value :  5.00720e-06
 Reference value :  5.00792e-06
 Reference value :  5.00898e-06
 Reference value :  5.00994e-06
 Reference value :  5.01179e-06
 Reference value :  5.01294e-06
 Reference value :  5.01429e-06
 Reference value :  5.01560e-06
 Reference value :  5.01715e-06
 Reference value :  5.01864e-06
 Reference value :  5.02002e-06
 Reference value :  5.02153e-06
 Reference value :  5.02288e-06
 Reference value :  5.02428e-06
 Reference value :  5.02594e-06
 Reference value :  5.02809e-06
 Reference value :  5.03039e-06
 Reference value :  5.03431e-06
 Reference value :  5.03984e-06
 Reference value :  5.04592e-06
 Reference value :  5.05182e-06
 Reference value :  5.05924e-06
 Reference value :  5.06667e-06
 Reference value :  5.07211e-06
 Reference value :  5.07720e-06
 Reference value :  5.08429e-06
 Reference value :  5.09116e-06
 Reference value :  5.09882e-06
 Reference value :  5.11405e-06
 Reference value :  5.13053e-06
 Reference value :  5.14540e-06
 Reference value :  5.15418e-06
 Reference value :  5.16441e-06
 Reference value :  5.17673e-06
 Reference value :  5.19167e-06
 Reference value :  5.20573e-06
 Reference value :  5.21718e-06
 Reference value :  5.23092e-06
 Reference value :  5.25010e-06
 Reference value :  5.25011e-06
 Reference value :  5.25013e-06
 Reference value :  5.25017e-06
 Reference value :  5.25020e-06
 Reference value :  5.25020e-06
 Reference value :  5.25020e-06
 Reference value :  5.25021e-06
 Reference value :  5.25021e-06
 Reference value :  5.25022e-06
 Reference value :  5.25025e-06
 Reference value :  5.25029e-06
 Reference value :  5.25039e-06
 Reference value :  5.25057e-06
 Reference value :  5.25090e-06
 Reference value :  5.25139e-06
 Reference value :  5.25201e-06
 Reference value :  5.25260e-06
 Reference value :  5.25328e-06
 Reference value :  5.25413e-06
 Reference value :  5.25473e-06
 Reference value :  5.25542e-06
 Reference value :  5.25626e-06
 Reference value :  5.25722e-06
 Reference value :  5.25823e-06
 Reference value :  5.26025e-06
 Reference value :  5.26215e-06
 Reference value :  5.26536e-06
 Reference value :  5.26921e-06
 Reference value :  5.27692e-06
 Reference value :  5.29234e-06
 Reference value :  5.32319e-06
 Reference value :  5.38488e-06
 Reference value :  5.45220e-06
 Reference value :  5.50000e-06
 Reference value :  5.50001e-06
 Reference value :  5.50003e-06
 Reference value :  5.50007e-06
 Reference value :  5.50010e-06
 Reference value :  5.50010e-06
 Reference value :  5.50011e-06
 Reference value :  5.50013e-06
 Reference value :  5.50016e-06
 Reference value :  5.50023e-06
 Reference value :  5.50036e-06
 Reference value :  5.50054e-06
 Reference value :  5.50089e-06
 Reference value :  5.50139e-06
 Reference value :  5.50190e-06
 Reference value :  5.50240e-06
 Reference value :  5.50303e-06
 Reference value :  5.50367e-06
 Reference value :  5.50454e-06
 Reference value :  5.50535e-06
 Reference value :  5.50627e-06
 Reference value :  5.50761e-06
 Reference value :  5.50885e-06
 Reference value :  5.51020e-06
 Reference value :  5.51157e-06
 Reference value :  5.51292e-06
 Reference value :  5.51431e-06
 Reference value :  5.51594e-06
 Reference value :  5.51776e-06
 Reference value :  5.52096e-06
 Reference value :  5.52565e-06
 Reference value :  5.53429e-06
 Reference value :  5.55016e-06
 Reference value :  5.57893e-06
 Reference value :  5.63491e-06
 Reference value :  5.74687e-06
 Reference value :  5.75010e-06
 Reference value :  5.75011e-06
 Reference value :  5.75013e-06
 Reference value :  5.75017e-06
 Reference value :  5.75020e-06
 Reference value :  5.75020e-06
 Reference value :  5.75020e-06
 Reference value :  5.75021e-06
 Reference value :  5.75021e-06
 Reference value :  5.75022e-06
 Reference value :  5.75025e-06
 Reference value :  5.75029e-06
 Reference value :  5.75039e-06
 Reference value :  5.75057e-06
 Reference value :  5.75090e-06
 Reference value :  5.75139e-06
 Reference value :  5.75202e-06
 Reference value :  5.75260e-06
 Reference value :  5.75327e-06
 Reference value :  5.75412e-06
 Reference value :  5.75473e-06
 Reference value :  5.75543e-06
 Reference value :  5.75611e-06
 Reference value :  5.75684e-06
 Reference value :  5.75778e-06
 Reference value :  5.75881e-06
 Reference value :  5.75993e-06
 Reference value :  5.76137e-06
 Reference value :  5.76330e-06
 Reference value :  5.76542e-06
 Reference value :  5.76873e-06
 Reference value :  5.77311e-06
 Reference value :  5.78187e-06
 Reference value :  5.79938e-06
 Reference value :  5.83441e-06
 Reference value :  5.90447e-06
 Reference value :  6.00000e-06
 Reference value :  6.00001e-06
 Reference value :  6.00003e-06
 Reference value :  6.00007e-06
 Reference value :  6.00010e-06
 Reference value :  6.00010e-06
 Reference value :  6.00011e-06
 Reference value :  6.00013e-06
 Reference value :  6.00016e-06
 Reference value :  6.00023e-06
 Reference value :  6.00036e-06
 Reference value :  6.00054e-06
 Reference value :  6.00089e-06
 Reference value :  6.00139e-06
 Reference value :  6.00190e-06
 Reference value :  6.00243e-06
 Reference value :  6.00309e-06
 Reference value :  6.00375e-06
 Reference value :  6.00452e-06
 Reference value :  6.00515e-06
 Reference value :  6.00584e-06
 Reference value :  6.00654e-06
 Reference value :  6.00726e-06
 Reference value :  6.00801e-06
 Reference value :  6.00908e-06
 Reference value :  6.01014e-06
 Reference value :  6.01205e-06
 Reference value :  6.01326e-06
 Reference value :  6.01466e-06
 Reference value :  6.01600e-06
 Reference value :  6.01753e-06
 Reference value :  6.01894e-06
 Reference value :  6.02041e-06
 Reference value :  6.02184e-06
 Reference value :  6.02324e-06
 Reference value :  6.02466e-06
 Reference value :  6.02631e-06
 Reference value :  6.02854e-06
 Reference value :  6.03095e-06
 Reference value :  6.03545e-06
 Reference value :  6.04166e-06
 Reference value :  6.04763e-06
 Reference value :  6.05366e-06
 Reference value :  6.05837e-06
 Reference value :  6.06293e-06
 Reference value :  6.06809e-06
 Reference value :  6.07378e-06
 Reference value :  6.08118e-06
 Reference value :  6.09005e-06
 Reference value :  6.10159e-06
 Reference value :  6.12467e-06
 Reference value :  6.15610e-06
 Reference value :  6.21897e-06
 Reference value :  6.25010e-06
 Reference value :  6.25011e-06
 Reference value :  6.25013e-06
 Reference value :  6.25017e-06
 Reference value :  6.25020e-06
 Reference value :  6.25020e-06
 Reference value :  6.25020e-06
 Reference value :  6.25021e-06
 Reference value :  6.25021e-06
 Reference value :  6.25022e-06
 Reference value :  6.25025e-06
 Reference value :  6.25029e-06
 Reference value :  6.25039e-06
 Reference value :  6.25058e-06
 Reference value :  6.25091e-06
 Reference value :  6.25141e-06
 Reference value :  6.25204e-06
 Reference value :  6.25262e-06
 Reference value :  6.25330e-06
 Reference value :  6.25414e-06
 Reference value :  6.25475e-06
 Reference value :  6.25545e-06
 Reference value :  6.25634e-06
 Reference value :  6.25724e-06
 Reference value :  6.25832e-06
 Reference value :  6.26023e-06
 Reference value :  6.26218e-06
 Reference value :  6.26536e-06
 Reference value :  6.26930e-06
 Reference value :  6.27718e-06
 Reference value :  6.29295e-06
 Reference value :  6.32448e-06
 Reference value :  6.38754e-06
 Reference value :  6.50000e-06
 Reference value :  6.50001e-06
 Reference value :  6.50003e-06
 Reference value :  6.50007e-06
 Reference value :  6.50010e-06
 Reference value :  6.50010e-06
 Reference value :  6.50011e-06
 Reference value :  6.50013e-06
 Reference value :  6.50016e-06
 Reference value :  6.50023e-06
 Reference value :  6.50037e-06
 Reference value :  6.50054e-06
 Reference value :  6.50090e-06
 Reference value :  6.50139e-06
 Reference value :  6.50191e-06
 Reference value :  6.50245e-06
 Reference value :  6.50311e-06
 Reference value :  6.50378e-06
 Reference value :  6.50452e-06
 Reference value :  6.50537e-06
 Reference value :  6.50619e-06
 Reference value :  6.50733e-06
 Reference value :  6.50871e-06
 Reference value :  6.50987e-06
 Reference value :  6.51109e-06
 Reference value :  6.51222e-06
 Reference value :  6.51354e-06
 Reference value :  6.51486e-06
 Reference value :  6.51636e-06
 Reference value :  6.51935e-06
 Reference value :  6.52535e-06
 Reference value :  6.53588e-06
 Reference value :  6.55693e-06
 Reference value :  6.59905e-06
 Reference value :  6.68328e-06
 Reference value :  6.75010e-06
 Reference value :  6.75011e-06
 Reference value :  6.75013e-06
 Reference value :  6.75017e-06
 Reference value :  6.75020e-06
 Reference value :  6.75020e-06
 Reference value :  6.75020e-06
 Reference value :  6.75021e-06
 Reference value :  6.75021e-06
 Reference value :  6.75022e-06
 Reference value :  6.75025e-06
 Reference value :  6.75029e-06
 Reference value :  6.75039e-06
 Reference value :  6.75058e-06
 Reference value :  6.75091e-06
 Reference value :  6.75141e-06
 Reference value :  6.75204e-06
 Reference value :  6.75262e-06
 Reference value :  6.75330e-06
 Reference value :  6.75414e-06
 Reference value :  6.75474e-06
 Reference value :  6.75544e-06
 Reference value :  6.75613e-06
 Reference value :  6.75686e-06
 Reference value :  6.75781e-06
 Reference value :  6.75887e-06
 Reference value :  6.76098e-06
 Reference value :  6.76315e-06
 Reference value :  6.76694e-06
 Reference value :  6.77178e-06
 Reference value :  6.78146e-06
 Reference value :  6.80082e-06
 Reference value :  6.83954e-06
 Reference value :  6.91698e-06
 Reference value :  7.00000e-06
 Reference value :  7.00001e-06
 Reference value :  7.00003e-06
 Reference value :  7.00007e-06
 Reference value :  7.00010e-06
 Reference value :  7.00010e-06
 Reference value :  7.00011e-06
 Reference value :  7.00013e-06
 Reference value :  7.00016e-06
 Reference value :  7.00023e-06
 Reference value :  7.00036e-06
 Reference value :  7.00054e-06
 Reference value :  7.00089e-06
 Reference value :  7.00139e-06
 Reference value :  7.00190e-06
 Reference value :  7.00243e-06
 Reference value :  7.00310e-06
 Reference value :  7.00375e-06
 Reference value :  7.00453e-06
 Reference value :  7.00519e-06
 Reference value :  7.00589e-06
 Reference value :  7.00670e-06
 Reference value :  7.00746e-06
 Reference value :  7.00829e-06
 Reference value :  7.00953e-06
 Reference value :  7.01070e-06
 Reference value :  7.01288e-06
 Reference value :  7.01546e-06
 Reference value :  7.01740e-06
 Reference value :  7.01954e-06
 Reference value :  7.02109e-06
 Reference value :  7.02276e-06
 Reference value :  7.02452e-06
 Reference value :  7.02639e-06
 Reference value :  7.02843e-06
 Reference value :  7.03088e-06
 Reference value :  7.03447e-06
 Reference value :  7.03966e-06
 Reference value :  7.04529e-06
 Reference value :  7.04939e-06
 Reference value :  7.05394e-06
 Reference value :  7.06029e-06
 Reference value :  7.06757e-06
 Reference value :  7.07443e-06
 Reference value :  7.08136e-06
 Reference value :  7.08891e-06
 Reference value :  7.10402e-06
 Reference value :  7.12228e-06
 Reference value :  7.15311e-06
 Reference value :  7.21007e-06
 Reference value :  7.25010e-06
 Reference value :  7.25011e-06
 Reference value :  7.25013e-06
 Reference value :  7.25017e-06
 Reference value :  7.25020e-06
 Reference value :  7.25020e-06
 Reference value :  7.25020e-06
 Reference value :  7.25021e-06
 Reference value :  7.25021e-06
 Reference value :  7.25022e-06
 Reference value :  7.25025e-06
 Reference value :  7.25029e-06
 Reference value :  7.25039e-06
 Reference value :  7.25057e-06
 Reference value :  7.25091e-06
 Reference value :  7.25140e-06
 Reference value :  7.25203e-06
 Reference value :  7.25261e-06
 Reference value :  7.25329e-06
 Reference value :  7.25413e-06
 Reference value :  7.25472e-06
 Reference value :  7.25540e-06
 Reference value :  7.25621e-06
 Reference value :  7.25725e-06
 Reference value :  7.25821e-06
 Reference value :  7.26012e-06
 Reference value :  7.26205e-06
 Reference value :  7.26517e-06
 Reference value :  7.26902e-06
 Reference value :  7.27674e-06
 Reference value :  7.29216e-06
 Reference value :  7.32302e-06
 Reference value :  7.38473e-06
 Reference value :  7.50000e-06
 Reference value :  7.50001e-06
 Reference value :  7.50003e-06
 Reference value :  7.50007e-06
 Reference value :  7.50010e-06
 Reference value :  7.50010e-06
 Reference value :  7.50011e-06
 Reference value :  7.50013e-06
 Reference value :  7.50016e-06
 Reference value :  7.50023e-06
 Reference value :  7.50037e-06
 Reference value :  7.50054e-06
 Reference value :  7.50090e-06
 Reference value :  7.50142e-06
 Reference value :  7.50194e-06
 Reference value :  7.50248e-06
 Reference value :  7.50310e-06
 Reference value :  7.50379e-06
 Reference value :  7.50457e-06
 Reference value :  7.50545e-06
 Reference value :  7.50635e-06
 Reference value :  7.50758e-06
 Reference value :  7.50890e-06
 Reference value :  7.51015e-06
 Reference value :  7.51142e-06
 Reference value :  7.51260e-06
 Reference value :  7.51393e-06
 Reference value :  7.51526e-06
 Reference value :  7.51679e-06
 Reference value :  7.51985e-06
 Reference value :  7.52560e-06
 Reference value :  7.53637e-06
 Reference value :  7.55789e-06
 Reference value :  7.60095e-06
 Reference value :  7.68705e-06
 Reference value :  7.75010e-06
 Reference value :  7.75011e-06
 Reference value :  7.75013e-06
 Reference value :  7.75017e-06
 Reference value :  7.75020e-06
 Reference value :  7.75020e-06
 Reference value :  7.75020e-06
 Reference value :  7.75021e-06
 Reference value :  7.75021e-06
 Reference value :  7.75022e-06
 Reference value :  7.75025e-06
 Reference value :  7.75029e-06
 Reference value :  7.75039e-06
 Reference value :  7.75058e-06
 Reference value :  7.75092e-06
 Reference value :  7.75141e-06
 Reference value :  7.75198e-06
 Reference value :  7.75258e-06
 Reference value :  7.75322e-06
 Reference value :  7.75406e-06
 Reference value :  7.75467e-06
 Reference value :  7.75537e-06
 Reference value :  7.75603e-06
 Reference value :  7.75675e-06
 Reference value :  7.75766e-06
 Reference value :  7.75867e-06
 Reference value :  7.75969e-06
 Reference value :  7.76119e-06
 Reference value :  7.76286e-06
 Reference value :  7.76516e-06
 Reference value :  7.76802e-06
 Reference value :  7.77228e-06
 Reference value :  7.78081e-06
 Reference value :  7.79755e-06
 Reference value :  7.83104e-06
 Reference value :  7.89802e-06
 Reference value :  8.00000e-06
 Reference value :  8.00001e-06
 Reference value :  8.00003e-06
 Reference value :  8.00007e-06
 Reference value :  8.00010e-06
 Reference value :  8.00010e-06
 Reference value :  8.00011e-06
 Reference value :  8.00013e-06
 Reference value :  8.00016e-06
 Reference value :  8.00023e-06
 Reference value :  8.00036e-06
 Reference value :  8.00054e-06
 Reference value :  8.00090e-06
 Reference value :  8.00141e-06
 Reference value :  8.00193e-06
 Reference value :  8.00248e-06
 Reference value :  8.00314e-06
 Reference value :  8.00383e-06
 Reference value :  8.00461e-06
 Reference value :  8.00525e-06
 Reference value :  8.00594e-06
 Reference value :  8.00661e-06
 Reference value :  8.00738e-06
 Reference value :  8.00810e-06
 Reference value :  8.00920e-06
 Reference value :  8.01025e-06
 Reference value :  8.01192e-06
 Reference value :  8.01319e-06
 Reference value :  8.01454e-06
 Reference value :  8.01599e-06
 Reference value :  8.01753e-06
 Reference value :  8.01924e-06
 Reference value :  8.02140e-06
 Reference value :  8.02437e-06
 Reference value :  8.02711e-06
 Reference value :  8.03124e-06
 Reference value :  8.03814e-06
 Reference value :  8.05028e-06
 Reference value :  8.06314e-06
 Reference value :  8.07991e-06
 Reference value :  8.10270e-06
 Reference value :  8.12587e-06
 Reference value :  8.14967e-06
 Reference value :  8.17110e-06
 Reference value :  8.19376e-06
 Reference value :  8.21726e-06
 Reference value :  8.25010e-06
 Reference value :  8.25011e-06
 Reference value :  8.25013e-06
 Reference value :  8.25017e-06
 Reference value :  8.25020e-06
 Reference value :  8.25020e-06
 Reference value :  8.25020e-06
 Reference value :  8.25021e-06
 Reference value :  8.25021e-06
 Reference value :  8.25022e-06
 Reference value :  8.25025e-06
 Reference value :  8.25029e-06
 Reference value :  8.25039e-06
 Reference value :  8.25057e-06
 Reference value :  8.25095e-06
 Reference value :  8.25141e-06
 Reference value :  8.25198e-06
 Reference value :  8.25258e-06
 Reference value :  8.25321e-06
 Reference value :  8.25405e-06
 Reference value :  8.25495e-06
 Reference value :  8.25613e-06
 Reference value :  8.25753e-06
 Reference value :  8.25885e-06
 Reference value :  8.26111e-06
 Reference value :  8.26351e-06
 Reference value :  8.26729e-06
 Reference value :  8.27292e-06
 Reference value :  8.28419e-06
 Reference value :  8.30671e-06
 Reference value :  8.35151e-06
 Reference value :  8.43997e-06
 Reference value :  8.50000e-06
 Reference value :  8.50000e-06
 Reference value :  8.50000e-06
 Reference value :  8.50000e-06
 Reference value :  8.50000e-06
 Reference value :  8.50000e-06
 Reference value :  8.50000e-06
 Reference value :  8.50000e-06
 Reference value :  8.50000e-06
 Reference value :  8.50001e-06
 Reference value :  8.50001e-06
 Reference value :  8.50002e-06
 Reference value :  8.50004e-06
 Reference value :  8.50008e-06
 Reference value :  8.50010e-06
 Reference value :  8.50010e-06
 Reference value :  8.50011e-06
 Reference value :  8.50012e-06
 Reference value :  8.50014e-06
 Reference value :  8.50018e-06
 Reference value :  8.50026e-06
 Reference value :  8.50043e-06
 Reference value :  8.50072e-06
 Reference value :  8.50121e-06
 Reference value :  8.50181e-06
 Reference value :  8.50247e-06
 Reference value :  8.50311e-06
 Reference value :  8.50379e-06
 Reference value :  8.50448e-06
 Reference value :  8.50521e-06
 Reference value :  8.50619e-06
 Reference value :  8.50721e-06
 Reference value :  8.50925e-06
 Reference value :  8.51054e-06
 Reference value :  8.51189e-06
 Reference value :  8.51348e-06
 Reference value :  8.51523e-06
 Reference value :  8.51762e-06
 Reference value :  8.52125e-06
 Reference value :  8.52564e-06
 Reference value :  8.53047e-06
 Reference value :  8.53380e-06
 Reference value :  8.53664e-06
 Reference value :  8.53925e-06
 Reference value :  8.54158e-06
 Reference value :  8.54339e-06
 Reference value :  8.54531e-06
 Reference value :  8.54736e-06
 Reference value :  8.54953e-06
 Reference value :  8.55264e-06
 Reference value :  8.55648e-06
 Reference value :  8.56057e-06
 Reference value :  8.56569e-06
 Reference value :  8.57188e-06
 Reference value :  8.58326e-06
 Reference value :  8.60093e-06
 Reference value :  8.63271e-06
 Reference value :  8.67708e-06
 Reference value :  8.70572e-06
 Reference value :  8.73654e-06
 Reference value :  8.75010e-06
 Reference value :  8.75011e-06
 Reference value :  8.75013e-06
 Reference value :  8.75017e-06
 Reference value :  8.75020e-06
 Reference value :  8.75020e-06
 Reference value :  8.75020e-06
 Reference value :  8.75021e-06
 Reference value :  8.75021e-06
 Reference value :  8.75022e-06
 Reference value :  8.75025e-06
 Reference value :  8.75029e-06
 Reference value :  8.75039e-06
 Reference value :  8.75057e-06
 Reference value :  8.75094e-06
 Reference value :  8.75141e-06
 Reference value :  8.75198e-06
 Reference value :  8.75258e-06
 Reference value :  8.75323e-06
 Reference value :  8.75405e-06
 Reference value :  8.75468e-06
 Reference value :  8.75541e-06
 Reference value :  8.75618e-06
 Reference value :  8.75698e-06
 Reference value :  8.75810e-06
 Reference value :  8.75962e-06
 Reference value :  8.76163e-06
 Reference value :  8.76427e-06
 Reference value :  8.76818e-06
 Reference value :  8.77583e-06
 Reference value :  8.79112e-06
 Reference value :  8.82110e-06
 Reference value :  8.88106e-06
 Reference value :  8.98841e-06
 Reference value :  9.00000e-06
 Reference value :  9.00001e-06
 Reference value :  9.00003e-06
 Reference value :  9.00007e-06
 Reference value :  9.00010e-06
 Reference value :  9.00010e-06
 Reference value :  9.00011e-06
 Reference value :  9.00013e-06
 Reference value :  9.00016e-06
 Reference value :  9.00023e-06
 Reference value :  9.00036e-06
 Reference value :  9.00055e-06
 Reference value :  9.00092e-06
 Reference value :  9.00145e-06
 Reference value :  9.00198e-06
 Reference value :  9.00255e-06
 Reference value :  9.00322e-06
 Reference value :  9.00397e-06
 Reference value :  9.00467e-06
 Reference value :  9.00550e-06
 Reference value :  9.00638e-06
 Reference value :  9.00744e-06
 Reference value :  9.00896e-06
 Reference value :  9.01080e-06
 Reference value :  9.01260e-06
 Reference value :  9.01459e-06
 Reference value :  9.01630e-06
 Reference value :  9.01808e-06
 Reference value :  9.02029e-06
 Reference value :  9.02269e-06
 Reference value :  9.02704e-06
 Reference value :  9.03365e-06
 Reference value :  9.04490e-06
 Reference value :  9.06699e-06
 Reference value :  9.11118e-06
 Reference value :  9.19576e-06
 Reference value :  9.25010e-06
 Reference value :  9.25011e-06
 Reference value :  9.25013e-06
 Reference value :  9.25017e-06
 Reference value :  9.25020e-06
 Reference value :  9.25020e-06
 Reference value :  9.25020e-06
 Reference value :  9.25021e-06
 Reference value :  9.25021e-06
 Reference value :  9.25022e-06
 Reference value :  9.25025e-06
 Reference value :  9.25029e-06
 Reference value :  9.25039e-06
 Reference value :  9.25057e-06
 Reference value :  9.25094e-06
 Reference value :  9.25142e-06
 Reference value :  9.25198e-06
 Reference value :  9.25259e-06
 Reference value :  9.25324e-06
 Reference value :  9.25411e-06
 Reference value :  9.25473e-06
 Reference value :  9.25545e-06
 Reference value :  9.25612e-06
 Reference value :  9.25686e-06
 Reference value :  9.25779e-06
 Reference value :  9.25884e-06
 Reference value :  9.26092e-06
 Reference value :  9.26308e-06
 Reference value :  9.26682e-06
 Reference value :  9.27156e-06
 Reference value :  9.28102e-06
 Reference value :  9.29994e-06
 Reference value :  9.33779e-06
 Reference value :  9.41349e-06
 Reference value :  9.50000e-06
 Reference value :  9.50001e-06
 Reference value :  9.50003e-06
 Reference value :  9.50007e-06
 Reference value :  9.50010e-06
 Reference value :  9.50010e-06
 Reference value :  9.50011e-06
 Reference value :  9.50013e-06
 Reference value :  9.50016e-06
 Reference value :  9.50023e-06
 Reference value :  9.50036e-06
 Reference value :  9.50055e-06
 Reference value :  9.50092e-06
 Reference value :  9.50145e-06
 Reference value :  9.50198e-06
 Reference value :  9.50255e-06
 Reference value :  9.50322e-06
 Reference value :  9.50397e-06
 Reference value :  9.50472e-06
 Reference value :  9.50541e-06
 Reference value :  9.50613e-06
 Reference value :  9.50694e-06
 Reference value :  9.50770e-06
 Reference value :  9.50853e-06
 Reference value :  9.50971e-06
 Reference value :  9.51103e-06
 Reference value :  9.51330e-06
 Reference value :  9.51572e-06
 Reference value :  9.51764e-06
 Reference value :  9.51939e-06
 Reference value :  9.52065e-06
 Reference value :  9.52203e-06
 Reference value :  9.52361e-06
 Reference value :  9.52514e-06
 Reference value :  9.52697e-06
 Reference value :  9.52971e-06
 Reference value :  9.53254e-06
 Reference value :  9.53819e-06
 Reference value :  9.54722e-06
 Reference value :  9.56173e-06
 Reference value :  9.58164e-06
 Reference value :  9.60399e-06
 Reference value :  9.61786e-06
 Reference value :  9.62857e-06
 Reference value :  9.63586e-06
 Reference value :  9.64464e-06
 Reference value :  9.65190e-06
 Reference value :  9.65990e-06
 Reference value :  9.66826e-06
 Reference value :  9.68106e-06
 Reference value :  9.69870e-06
 Reference value :  9.72255e-06
 Reference value :  9.75010e-06
 Reference value :  9.75011e-06
 Reference value :  9.75013e-06
 Reference value :  9.75017e-06
 Reference value :  9.75020e-06
 Reference value :  9.75020e-06
 Reference value :  9.75020e-06
 Reference value :  9.75021e-06
 Reference value :  9.75021e-06
 Reference value :  9.75022e-06
 Reference value :  9.75025e-06
 Reference value :  9.75029e-06
 Reference value :  9.75039e-06
 Reference value :  9.75057e-06
 Reference value :  9.75090e-06
 Reference value :  9.75140e-06
 Reference value :  9.75203e-06
 Reference value :  9.75261e-06
 Reference value :  9.75328e-06
 Reference value :  9.75411e-06
 Reference value :  9.75470e-06
 Reference value :  9.75538e-06
 Reference value :  9.75623e-06
 Reference value :  9.75717e-06
 Reference value :  9.75819e-06
 Reference value :  9.76023e-06
 Reference value :  9.76211e-06
 Reference value :  9.76528e-06
 Reference value :  9.76910e-06
 Reference value :  9.77676e-06
 Reference value :  9.79208e-06
 Reference value :  9.82270e-06
 Reference value :  9.88396e-06
 Reference value :  1.00000e-05
 Reference value :  1.00000e-05
 Reference value :  1.00000e-05
 Reference value :  1.00001e-05
 Reference value :  1.00001e-05
 Reference value :  1.00001e-05
 Reference value :  1.00001e-05
 Reference value :  1.00001e-05
 Reference value :  1.00002e-05
 Reference value :  1.00002e-05
 Reference value :  1.00004e-05
 Reference value :  1.00005e-05
 Reference value :  1.00009e-05
 Reference value :  1.00014e-05
 Reference value :  1.00019e-05
 Reference value :  1.00024e-05
 Reference value :  1.00030e-05
 Reference value :  1.00037e-05
 Reference value :  1.00046e-05
 Reference value :  1.00054e-05
 Reference value :  1.00063e-05
 Reference value :  1.00076e-05
 Reference value :  1.00090e-05
 Reference value :  1.00104e-05
 Reference value :  1.00118e-05
 Reference value :  1.00131e-05
 Reference value :  1.00146e-05
 Reference value :  1.00160e-05
 Reference value :  1.00176e-05
 Reference value :  1.00209e-05
 Reference value :  1.00264e-05
 Reference value :  1.00372e-05
 Reference value :  1.00588e-05
 Reference value :  1.01021e-05
 Reference value :  1.01885e-05
 Reference value :  1.02501e-05
 Reference value :  1.02501e-05
 Reference value :  1.02501e-05
 Reference value :  1.02502e-05
 Reference value :  1.02502e-05
 Reference value :  1.02502e-05
 Reference value :  1.02502e-05
 Reference value :  1.02502e-05
 Reference value :  1.02502e-05
 Reference value :  1.02502e-05
 Reference value :  1.02502e-05
 Reference value :  1.02503e-05
 Reference value :  1.02504e-05
 Reference value :  1.02506e-05
 Reference value :  1.02509e-05
 Reference value :  1.02514e-05
 Reference value :  1.02520e-05
 Reference value :  1.02526e-05
 Reference value :  1.02532e-05
 Reference value :  1.02541e-05
 Reference value :  1.02547e-05
 Reference value :  1.02554e-05
 Reference value :  1.02561e-05
 Reference value :  1.02568e-05
 Reference value :  1.02577e-05
 Reference value :  1.02587e-05
 Reference value :  1.02597e-05
 Reference value :  1.02612e-05
 Reference value :  1.02629e-05
 Reference value :  1.02651e-05
 Reference value :  1.02680e-05
 Reference value :  1.02722e-05
 Reference value :  1.02807e-05
 Reference value :  1.02964e-05
 Reference value :  1.03277e-05
 Reference value :  1.03905e-05
 Reference value :  1.05000e-05
 Reference value :  1.05000e-05
 Reference value :  1.05000e-05
 Reference value :  1.05001e-05
 Reference value :  1.05001e-05
 Reference value :  1.05001e-05
 Reference value :  1.05001e-05
 Reference value :  1.05001e-05
 Reference value :  1.05002e-05
 Reference value :  1.05002e-05
 Reference value :  1.05004e-05
 Reference value :  1.05005e-05
 Reference value :  1.05009e-05
 Reference value :  1.05014e-05
 Reference value :  1.05019e-05
 Reference value :  1.05024e-05
 Reference value :  1.05031e-05
 Reference value :  1.05037e-05
 Reference value :  1.05045e-05
 Reference value :  1.05052e-05
 Reference value :  1.05058e-05
 Reference value :  1.05065e-05
 Reference value :  1.05072e-05
 Reference value :  1.05080e-05
 Reference value :  1.05089e-05
 Reference value :  1.05099e-05
 Reference value :  1.05115e-05
 Reference value :  1.05138e-05
 Reference value :  1.05153e-05
 Reference value :  1.05171e-05
 Reference value :  1.05187e-05
 Reference value :  1.05200e-05
 Reference value :  1.05211e-05
 Reference value :  1.05222e-05
 Reference value :  1.05235e-05
 Reference value :  1.05250e-05
 Reference value :  1.05265e-05
 Reference value :  1.05290e-05
 Reference value :  1.05320e-05
 Reference value :  1.05380e-05
 Reference value :  1.05490e-05
 Reference value :  1.05665e-05
 Reference value :  1.06010e-05
 Reference value :  1.06379e-05
 Reference value :  1.06727e-05
 Reference value :  1.06960e-05
 Reference value :  1.07158e-05
 Reference value :  1.07364e-05
 Reference value :  1.07501e-05
 Reference value :  1.07501e-05
 Reference value :  1.07501e-05
 Reference value :  1.07502e-05
 Reference value :  1.07502e-05
 Reference value :  1.07502e-05
 Reference value :  1.07502e-05
 Reference value :  1.07502e-05
 Reference value :  1.07502e-05
 Reference value :  1.07502e-05
 Reference value :  1.07502e-05
 Reference value :  1.07503e-05
 Reference value :  1.07504e-05
 Reference value :  1.07506e-05
 Reference value :  1.07509e-05
 Reference value :  1.07514e-05
 Reference value :  1.07520e-05
 Reference value :  1.07526e-05
 Reference value :  1.07533e-05
 Reference value :  1.07541e-05
 Reference value :  1.07547e-05
 Reference value :  1.07554e-05
 Reference value :  1.07564e-05
 Reference value :  1.07572e-05
 Reference value :  1.07583e-05
 Reference value :  1.07603e-05
 Reference value :  1.07623e-05
 Reference value :  1.07655e-05
 Reference value :  1.07695e-05
 Reference value :  1.07774e-05
 Reference value :  1.07933e-05
 Reference value :  1.08250e-05
 Reference value :  1.08797e-05
 Reference value :  1.09385e-05
 Reference value :  1.10000e-05
 Reference value :  1.10000e-05
 Reference value :  1.10000e-05
 Reference value :  1.10001e-05
 Reference value :  1.10001e-05
 Reference value :  1.10001e-05
 Reference value :  1.10001e-05
 Reference value :  1.10001e-05
 Reference value :  1.10002e-05
 Reference value :  1.10002e-05
 Reference value :  1.10004e-05
 Reference value :  1.10005e-05
 Reference value :  1.10009e-05
 Reference value :  1.10014e-05
 Reference value :  1.10019e-05
 Reference value :  1.10024e-05
 Reference value :  1.10031e-05
 Reference value :  1.10038e-05
 Reference value :  1.10045e-05
 Reference value :  1.10054e-05
 Reference value :  1.10062e-05
 Reference value :  1.10075e-05
 Reference value :  1.10088e-05
 Reference value :  1.10101e-05
 Reference value :  1.10114e-05
 Reference value :  1.10128e-05
 Reference value :  1.10144e-05
 Reference value :  1.10162e-05
 Reference value :  1.10179e-05
 Reference value :  1.10214e-05
 Reference value :  1.10283e-05
 Reference value :  1.10393e-05
 Reference value :  1.10614e-05
 Reference value :  1.11055e-05
 Reference value :  1.11938e-05
 Reference value :  1.12501e-05
 Reference value :  1.12501e-05
 Reference value :  1.12501e-05
 Reference value :  1.12502e-05
 Reference value :  1.12502e-05
 Reference value :  1.12502e-05
 Reference value :  1.12502e-05
 Reference value :  1.12502e-05
 Reference value :  1.12502e-05
 Reference value :  1.12502e-05
 Reference value :  1.12502e-05
 Reference value :  1.12503e-05
 Reference value :  1.12504e-05
 Reference value :  1.12506e-05
 Reference value :  1.12509e-05
 Reference value :  1.12514e-05
 Reference value :  1.12520e-05
 Reference value :  1.12526e-05
 Reference value :  1.12532e-05
 Reference value :  1.12541e-05
 Reference value :  1.12547e-05
 Reference value :  1.12554e-05
 Reference value :  1.12560e-05
 Reference value :  1.12568e-05
 Reference value :  1.12577e-05
 Reference value :  1.12587e-05
 Reference value :  1.12606e-05
 Reference value :  1.12627e-05
 Reference value :  1.12663e-05
 Reference value :  1.12706e-05
 Reference value :  1.12793e-05
 Reference value :  1.12968e-05
 Reference value :  1.13316e-05
 Reference value :  1.14013e-05
 Reference value :  1.15000e-05
 Reference value :  1.15000e-05
 Reference value :  1.15000e-05
 Reference value :  1.15001e-05
 Reference value :  1.15001e-05
 Reference value :  1.15001e-05
 Reference value :  1.15001e-05
 Reference value :  1.15001e-05
 Reference value :  1.15002e-05
 Reference value :  1.15002e-05
 Reference value :  1.15004e-05
 Reference value :  1.15005e-05
 Reference value :  1.15009e-05
 Reference value :  1.15014e-05
 Reference value :  1.15019e-05
 Reference value :  1.15024e-05
 Reference value :  1.15031e-05
 Reference value :  1.15038e-05
 Reference value :  1.15045e-05
 Reference value :  1.15052e-05
 Reference value :  1.15059e-05
 Reference value :  1.15068e-05
 Reference value :  1.15075e-05
 Reference value :  1.15083e-05
 Reference value :  1.15095e-05
 Reference value :  1.15106e-05
 Reference value :  1.15126e-05
 Reference value :  1.15150e-05
 Reference value :  1.15168e-05
 Reference value :  1.15188e-05
 Reference value :  1.15202e-05
 Reference value :  1.15217e-05
 Reference value :  1.15231e-05
 Reference value :  1.15246e-05
 Reference value :  1.15263e-05
 Reference value :  1.15286e-05
 Reference value :  1.15310e-05
 Reference value :  1.15350e-05
 Reference value :  1.15389e-05
 Reference value :  1.15428e-05
 Reference value :  1.15470e-05
 Reference value :  1.15501e-05
 Reference value :  1.15541e-05
 Reference value :  1.15571e-05
 Reference value :  1.15604e-05
 Reference value :  1.15654e-05
 Reference value :  1.15700e-05
 Reference value :  1.15760e-05
 Reference value :  1.15823e-05
 Reference value :  1.15887e-05
 Reference value :  1.15959e-05
 Reference value :  1.16101e-05
 Reference value :  1.16285e-05
 Reference value :  1.16592e-05
 Reference value :  1.17020e-05
 Reference value :  1.17442e-05
 Reference value :  1.17501e-05
 Reference value :  1.17501e-05
 Reference value :  1.17501e-05
 Reference value :  1.17502e-05
 Reference value :  1.17502e-05
 Reference value :  1.17502e-05
 Reference value :  1.17502e-05
 Reference value :  1.17502e-05
 Reference value :  1.17502e-05
 Reference value :  1.17502e-05
 Reference value :  1.17502e-05
 Reference value :  1.17503e-05
 Reference value :  1.17504e-05
 Reference value :  1.17506e-05
 Reference value :  1.17509e-05
 Reference value :  1.17514e-05
 Reference value :  1.17520e-05
 Reference value :  1.17526e-05
 Reference value :  1.17533e-05
 Reference value :  1.17541e-05
 Reference value :  1.17547e-05
 Reference value :  1.17554e-05
 Reference value :  1.17562e-05
 Reference value :  1.17572e-05
 Reference value :  1.17582e-05
 Reference value :  1.17602e-05
 Reference value :  1.17621e-05
 Reference value :  1.17653e-05
 Reference value :  1.17691e-05
 Reference value :  1.17768e-05
 Reference value :  1.17921e-05
 Reference value :  1.18228e-05
 Reference value :  1.18842e-05
 Reference value :  1.20000e-05
 Reference value :  1.20000e-05
 Reference value :  1.20000e-05
 Reference value :  1.20001e-05
 Reference value :  1.20001e-05
 Reference value :  1.20001e-05
 Reference value :  1.20001e-05
 Reference value :  1.20001e-05
 Reference value :  1.20002e-05
 Reference value :  1.20002e-05
 Reference value :  1.20004e-05
 Reference value :  1.20005e-05
 Reference value :  1.20009e-05
 Reference value :  1.20014e-05
 Reference value :  1.20019e-05
 Reference value :  1.20024e-05
 Reference value :  1.20030e-05
 Reference value :  1.20037e-05
 Reference value :  1.20046e-05
 Reference value :  1.20053e-05
 Reference value :  1.20063e-05
 Reference value :  1.20074e-05
 Reference value :  1.20087e-05
 Reference value :  1.20099e-05
 Reference value :  1.20111e-05
 Reference value :  1.20125e-05
 Reference value :  1.20141e-05
 Reference value :  1.20157e-05
 Reference value :  1.20176e-05
 Reference value :  1.20210e-05
 Reference value :  1.20260e-05
 Reference value :  1.20356e-05
 Reference value :  1.20538e-05
 Reference value :  1.20873e-05
 Reference value :  1.21545e-05
 Reference value :  1.22501e-05
 Reference value :  1.22501e-05
 Reference value :  1.22501e-05
 Reference value :  1.22502e-05
 Reference value :  1.22502e-05
 Reference value :  1.22502e-05
 Reference value :  1.22502e-05
 Reference value :  1.22502e-05
 Reference value :  1.22502e-05
 Reference value :  1.22502e-05
 Reference value :  1.22502e-05
 Reference value :  1.22503e-05
 Reference value :  1.22504e-05
 Reference value :  1.22506e-05
 Reference value :  1.22509e-05
 Reference value :  1.22514e-05
 Reference value :  1.22520e-05
 Reference value :  1.22526e-05
 Reference value :  1.22532e-05
 Reference value :  1.22541e-05
 Reference value :  1.22547e-05
 Reference value :  1.22554e-05
 Reference value :  1.22561e-05
 Reference value :  1.22568e-05
 Reference value :  1.22577e-05
 Reference value :  1.22587e-05
 Reference value :  1.22597e-05
 Reference value :  1.22612e-05
 Reference value :  1.22628e-05
 Reference value :  1.22651e-05
 Reference value :  1.22679e-05
 Reference value :  1.22721e-05
 Reference value :  1.22806e-05
 Reference value :  1.22952e-05
 Reference value :  1.23246e-05
 Reference value :  1.23833e-05
 Reference value :  1.25000e-05
 Reference value :  1.25000e-05
 Reference value :  1.25000e-05
 Reference value :  1.25001e-05
 Reference value :  1.25001e-05
 Reference value :  1.25001e-05
 Reference value :  1.25001e-05
 Reference value :  1.25001e-05
 Reference value :  1.25002e-05
 Reference value :  1.25002e-05
 Reference value :  1.25004e-05
 Reference value :  1.25005e-05
 Reference value :  1.25009e-05
 Reference value :  1.25014e-05
 Reference value :  1.25019e-05
 Reference value :  1.25024e-05
 Reference value :  1.25031e-05
 Reference value :  1.25037e-05
 Reference value :  1.25045e-05
 Reference value :  1.25051e-05
 Reference value :  1.25058e-05
 Reference value :  1.25065e-05
 Reference value :  1.25072e-05
 Reference value :  1.25079e-05
 Reference value :  1.25089e-05
 Reference value :  1.25099e-05
 Reference value :  1.25113e-05
 Reference value :  1.25125e-05
 Reference value :  1.25138e-05
 Reference value :  1.25151e-05
 Reference value :  1.25166e-05
 Reference value :  1.25180e-05
 Reference value :  1.25190e-05
 Reference value :  1.25200e-05
 Reference value :  1.25213e-05
 Reference value :  1.25224e-05
 Reference value :  1.25236e-05
 Reference value :  1.25250e-05
 Reference value :  1.25270e-05
 Reference value :  1.25291e-05
 Reference value :  1.25325e-05
 Reference value :  1.25384e-05
 Reference value :  1.25468e-05
 Reference value :  1.25619e-05
 Reference value :  1.25841e-05
 Reference value :  1.26051e-05
 Reference value :  1.26271e-05
 Reference value :  1.26464e-05
 Reference value :  1.26602e-05
 Reference value :  1.26732e-05
 Reference value :  1.26854e-05
 Reference value :  1.27004e-05
 Reference value :  1.27302e-05
 Reference value :  1.27501e-05
 Reference value :  1.27501e-05
 Reference value :  1.27501e-05
 Reference value :  1.27502e-05
 Reference value :  1.27502e-05
 Reference value :  1.27502e-05
 Reference value :  1.27502e-05
 Reference value :  1.27502e-05
 Reference value :  1.27502e-05
 Reference value :  1.27502e-05
 Reference value :  1.27502e-05
 Reference value :  1.27503e-05
 Reference value :  1.27504e-05
 Reference value :  1.27506e-05
 Reference value :  1.27509e-05
 Reference value :  1.27514e-05
 Reference value :  1.27520e-05
 Reference value :  1.27526e-05
 Reference value :  1.27533e-05
 Reference value :  1.27541e-05
 Reference value :  1.27547e-05
 Reference value :  1.27554e-05
 Reference value :  1.27563e-05
 Reference value :  1.27572e-05
 Reference value :  1.27582e-05
 Reference value :  1.27603e-05
 Reference value :  1.27622e-05
 Reference value :  1.27654e-05
 Reference value :  1.27692e-05
 Reference value :  1.27769e-05
 Reference value :  1.27923e-05
 Reference value :  1.28230e-05
 Reference value :  1.28845e-05
 Reference value :  1.30000e-05
 Reference value :  1.30000e-05
 Reference value :  1.30000e-05
 Reference value :  1.30001e-05
 Reference value :  1.30001e-05
 Reference value :  1.30001e-05
 Reference value :  1.30001e-05
 Reference value :  1.30001e-05
 Reference value :  1.30002e-05
 Reference value :  1.30002e-05
 Reference value :  1.30004e-05
 Reference value :  1.30005e-05
 Reference value :  1.30009e-05
 Reference value :  1.30014e-05
 Reference value :  1.30019e-05
 Reference value :  1.30024e-05
 Reference value :  1.30030e-05
 Reference value :  1.30037e-05
 Reference value :  1.30046e-05
 Reference value :  1.30053e-05
 Reference value :  1.30063e-05
 Reference value :  1.30074e-05
 Reference value :  1.30087e-05
 Reference value :  1.30099e-05
 Reference value :  1.30111e-05
 Reference value :  1.30123e-05
 Reference value :  1.30136e-05
 Reference value :  1.30149e-05
 Reference value :  1.30164e-05
 Reference value :  1.30195e-05
 Reference value :  1.30255e-05
 Reference value :  1.30361e-05
 Reference value :  1.30572e-05
 Reference value :  1.30996e-05
 Reference value :  1.31842e-05
 Reference value :  1.32501e-05
 Reference value :  1.32501e-05
 Reference value :  1.32501e-05
 Reference value :  1.32502e-05
 Reference value :  1.32502e-05
 Reference value :  1.32502e-05
 Reference value :  1.32502e-05
 Reference value :  1.32502e-05
 Reference value :  1.32502e-05
 Reference value :  1.32502e-05
 Reference value :  1.32502e-05
 Reference value :  1.32503e-05
 Reference value :  1.32504e-05
 Reference value :  1.32506e-05
 Reference value :  1.32509e-05
 Reference value :  1.32514e-05
 Reference value :  1.32520e-05
 Reference value :  1.32526e-05
 Reference value :  1.32533e-05
 Reference value :  1.32541e-05
 Reference value :  1.32548e-05
 Reference value :  1.32555e-05
 Reference value :  1.32562e-05
 Reference value :  1.32569e-05
 Reference value :  1.32579e-05
 Reference value :  1.32589e-05
 Reference value :  1.32601e-05
 Reference value :  1.32615e-05
 Reference value :  1.32635e-05
 Reference value :  1.32656e-05
 Reference value :  1.32692e-05
 Reference value :  1.32739e-05
 Reference value :  1.32832e-05
 Reference value :  1.33019e-05
 Reference value :  1.33392e-05
 Reference value :  1.34139e-05
 Reference value :  1.35000e-05
 Reference value :  1.35000e-05
 Reference value :  1.35000e-05
 Reference value :  1.35001e-05
 Reference value :  1.35001e-05
 Reference value :  1.35001e-05
 Reference value :  1.35001e-05
 Reference value :  1.35001e-05
 Reference value :  1.35002e-05
 Reference value :  1.35002e-05
 Reference value :  1.35004e-05
 Reference value :  1.35005e-05
 Reference value :  1.35009e-05
 Reference value :  1.35014e-05
 Reference value :  1.35019e-05
 Reference value :  1.35024e-05
 Reference value :  1.35031e-05
 Reference value :  1.35037e-05
 Reference value :  1.35045e-05
 Reference value :  1.35051e-05
 Reference value :  1.35058e-05
 Reference value :  1.35065e-05
 Reference value :  1.35072e-05
 Reference value :  1.35079e-05
 Reference value :  1.35090e-05
 Reference value :  1.35099e-05
 Reference value :  1.35118e-05
 Reference value :  1.35129e-05
 Reference value :  1.35143e-05
 Reference value :  1.35156e-05
 Reference value :  1.35171e-05
 Reference value :  1.35186e-05
 Reference value :  1.35200e-05
 Reference value :  1.35215e-05
 Reference value :  1.35228e-05
 Reference value :  1.35242e-05
 Reference value :  1.35259e-05
 Reference value :  1.35280e-05
 Reference value :  1.35303e-05
 Reference value :  1.35341e-05
 Reference value :  1.35395e-05
 Reference value :  1.35456e-05
 Reference value :  1.35514e-05
 Reference value :  1.35580e-05
 Reference value :  1.35645e-05
 Reference value :  1.35699e-05
 Reference value :  1.35757e-05
 Reference value :  1.35812e-05
 Reference value :  1.35869e-05
 Reference value :  1.35984e-05
 Reference value :  1.36132e-05
 Reference value :  1.36422e-05
 Reference value :  1.36642e-05
 Reference value :  1.36951e-05
 Reference value :  1.37175e-05
 Reference value :  1.37365e-05
 Reference value :  1.37501e-05
 Reference value :  1.37501e-05
 Reference value :  1.37501e-05
 Reference value :  1.37502e-05
 Reference value :  1.37502e-05
 Reference value :  1.37502e-05
 Reference value :  1.37502e-05
 Reference value :  1.37502e-05
 Reference value :  1.37502e-05
 Reference value :  1.37502e-05
 Reference value :  1.37502e-05
 Reference value :  1.37503e-05
 Reference value :  1.37504e-05
 Reference value :  1.37506e-05
 Reference value :  1.37509e-05
 Reference value :  1.37514e-05
 Reference value :  1.37520e-05
 Reference value :  1.37526e-05
 Reference value :  1.37533e-05
 Reference value :  1.37541e-05
 Reference value :  1.37547e-05
 Reference value :  1.37554e-05
 Reference value :  1.37562e-05
 Reference value :  1.37572e-05
 Reference value :  1.37582e-05
 Reference value :  1.37602e-05
 Reference value :  1.37621e-05
 Reference value :  1.37653e-05
 Reference value :  1.37691e-05
 Reference value :  1.37768e-05
 Reference value :  1.37923e-05
 Reference value :  1.38231e-05
 Reference value :  1.38848e-05
 Reference value :  1.39574e-05
 Reference value :  1.40000e-05
 Reference value :  1.40000e-05
 Reference value :  1.40000e-05
 Reference value :  1.40001e-05
 Reference value :  1.40001e-05
 Reference value :  1.40001e-05
 Reference value :  1.40001e-05
 Reference value :  1.40001e-05
 Reference value :  1.40002e-05
 Reference value :  1.40002e-05
 Reference value :  1.40004e-05
 Reference value :  1.40005e-05
 Reference value :  1.40009e-05
 Reference value :  1.40014e-05
 Reference value :  1.40019e-05
 Reference value :  1.40024e-05
 Reference value :  1.40030e-05
 Reference value :  1.40037e-05
 Reference value :  1.40045e-05
 Reference value :  1.40053e-05
 Reference value :  1.40063e-05
 Reference value :  1.40076e-05
 Reference value :  1.40089e-05
 Reference value :  1.40102e-05
 Reference value :  1.40116e-05
 Reference value :  1.40129e-05
 Reference value :  1.40143e-05
 Reference value :  1.40160e-05
 Reference value :  1.40178e-05
 Reference value :  1.40210e-05
 Reference value :  1.40256e-05
 Reference value :  1.40343e-05
 Reference value :  1.40500e-05
 Reference value :  1.40786e-05
 Reference value :  1.41342e-05
 Reference value :  1.42453e-05
 Reference value :  1.42501e-05
 Reference value :  1.42501e-05
 Reference value :  1.42501e-05
 Reference value :  1.42502e-05
 Reference value :  1.42502e-05
 Reference value :  1.42502e-05
 Reference value :  1.42502e-05
 Reference value :  1.42502e-05
 Reference value :  1.42502e-05
 Reference value :  1.42502e-05
 Reference value :  1.42502e-05
 Reference value :  1.42503e-05
 Reference value :  1.42504e-05
 Reference value :  1.42506e-05
 Reference value :  1.42509e-05
 Reference value :  1.42514e-05
 Reference value :  1.42520e-05
 Reference value :  1.42526e-05
 Reference value :  1.42533e-05
 Reference value :  1.42541e-05
 Reference value :  1.42547e-05
 Reference value :  1.42554e-05
 Reference value :  1.42561e-05
 Reference value :  1.42568e-05
 Reference value :  1.42578e-05
 Reference value :  1.42588e-05
 Reference value :  1.42599e-05
 Reference value :  1.42614e-05
 Reference value :  1.42633e-05
 Reference value :  1.42654e-05
 Reference value :  1.42687e-05
 Reference value :  1.42731e-05
 Reference value :  1.42819e-05
 Reference value :  1.42994e-05
 Reference value :  1.43345e-05
 Reference value :  1.44046e-05
 Reference value :  1.45000e-05
 Reference value :  1.45000e-05
 Reference value :  1.45000e-05
 Reference value :  1.45001e-05
 Reference value :  1.45001e-05
 Reference value :  1.45001e-05
 Reference value :  1.45001e-05
 Reference value :  1.45001e-05
 Reference value :  1.45002e-05
 Reference value :  1.45002e-05
 Reference value :  1.45004e-05
 Reference value :  1.45005e-05
 Reference value :  1.45009e-05
 Reference value :  1.45014e-05
 Reference value :  1.45019e-05
 Reference value :  1.45024e-05
 Reference value :  1.45031e-05
 Reference value :  1.45037e-05
 Reference value :  1.45045e-05
 Reference value :  1.45051e-05
 Reference value :  1.45058e-05
 Reference value :  1.45065e-05
 Reference value :  1.45073e-05
 Reference value :  1.45080e-05
 Reference value :  1.45091e-05
 Reference value :  1.45101e-05
 Reference value :  1.45120e-05
 Reference value :  1.45132e-05
 Reference value :  1.45147e-05
 Reference value :  1.45160e-05
 Reference value :  1.45175e-05
 Reference value :  1.45191e-05
 Reference value :  1.45206e-05
 Reference value :  1.45222e-05
 Reference value :  1.45238e-05
 Reference value :  1.45254e-05
 Reference value :  1.45273e-05
 Reference value :  1.45301e-05
 Reference value :  1.45331e-05
 Reference value :  1.45377e-05
 Reference value :  1.45427e-05
 Reference value :  1.45481e-05
 Reference value :  1.45517e-05
 Reference value :  1.45552e-05
 Reference value :  1.45598e-05
 Reference value :  1.45645e-05
 Reference value :  1.45695e-05
 Reference value :  1.45792e-05
 Reference value :  1.45904e-05
 Reference value :  1.46091e-05
 Reference value :  1.46372e-05
 Reference value :  1.46793e-05
 Reference value :  1.47501e-05
 Reference value :  1.47501e-05
 Reference value :  1.47501e-05
 Reference value :  1.47502e-05
 Reference value :  1.47502e-05
 Reference value :  1.47502e-05
 Reference value :  1.47502e-05
 Reference value :  1.47502e-05
 Reference value :  1.47502e-05
 Reference value :  1.47502e-05
 Reference value :  1.47502e-05
 Reference value :  1.47503e-05
 Reference value :  1.47504e-05
 Reference value :  1.47506e-05
 Reference value :  1.47509e-05
 Reference value :  1.47514e-05
 Reference value :  1.47520e-05
 Reference value :  1.47526e-05
 Reference value :  1.47533e-05
 Reference value :  1.47541e-05
 Reference value :  1.47547e-05
 Reference value :  1.47554e-05
 Reference value :  1.47564e-05
 Reference value :  1.47572e-05
 Reference value :  1.47583e-05
 Reference value :  1.47604e-05
 Reference value :  1.47623e-05
 Reference value :  1.47656e-05
 Reference value :  1.47695e-05
 Reference value :  1.47775e-05
 Reference value :  1.47933e-05
 Reference value :  1.48250e-05
 Reference value :  1.48884e-05
 Reference value :  1.50000e-05
 Reference value :  1.50000e-05
 Reference value :  1.50000e-05
 Reference value :  1.50001e-05
 Reference value :  1.50001e-05
 Reference value :  1.50001e-05
 Reference value :  1.50001e-05
 Reference value :  1.50001e-05
 Reference value :  1.50002e-05
 Reference value :  1.50002e-05
 Reference value :  1.50004e-05
 Reference value :  1.50005e-05
 Reference value :  1.50009e-05
 Reference value :  1.50014e-05
 Reference value :  1.50019e-05
 Reference value :  1.50025e-05
 Reference value :  1.50031e-05
 Reference value :  1.50038e-05
 Reference value :  1.50045e-05
 Reference value :  1.50054e-05
 Reference value :  1.50062e-05
 Reference value :  1.50073e-05
 Reference value :  1.50087e-05
 Reference value :  1.50099e-05
 Reference value :  1.50111e-05
 Reference value :  1.50122e-05
 Reference value :  1.50135e-05
 Reference value :  1.50149e-05
 Reference value :  1.50164e-05
 Reference value :  1.50194e-05
 Reference value :  1.50253e-05
 Reference value :  1.50359e-05
 Reference value :  1.50570e-05
 Reference value :  1.50992e-05
 Reference value :  1.51835e-05
 Reference value :  1.52501e-05
 Reference value :  1.52501e-05
 Reference value :  1.52501e-05
 Reference value :  1.52502e-05
 Reference value :  1.52502e-05
 Reference value :  1.52502e-05
 Reference value :  1.52502e-05
 Reference value :  1.52502e-05
 Reference value :  1.52502e-05
 Reference value :  1.52502e-05
 Reference value :  1.52502e-05
 Reference value :  1.52503e-05
 Reference value :  1.52504e-05
 Reference value :  1.52506e-05
 Reference value :  1.52509e-05
 Reference value :  1.52514e-05
 Reference value :  1.52520e-05
 Reference value :  1.52526e-05
 Reference value :  1.52533e-05
 Reference value :  1.52541e-05
 Reference value :  1.52547e-05
 Reference value :  1.52554e-05
 Reference value :  1.52561e-05
 Reference value :  1.52569e-05
 Reference value :  1.52578e-05
 Reference value :  1.52589e-05
 Reference value :  1.52610e-05
 Reference value :  1.52632e-05
 Reference value :  1.52670e-05
 Reference value :  1.52718e-05
 Reference value :  1.52815e-05
 Reference value :  1.53009e-05
 Reference value :  1.53398e-05
 Reference value :  1.54175e-05
 Reference value :  1.55000e-05
 Reference value :  1.55012e-05
 Reference value :  1.55035e-05
 Reference value :  1.55047e-05
 Reference value :  1.55059e-05
 Reference value :  1.55074e-05
 Reference value :  1.55086e-05
 Reference value :  1.55098e-05
 Reference value :  1.55112e-05
 Reference value :  1.55126e-05
 Reference value :  1.55148e-05
 Reference value :  1.55168e-05
 Reference value :  1.55187e-05
 Reference value :  1.55202e-05
 Reference value :  1.55216e-05
 Reference value :  1.55228e-05
 Reference value :  1.55243e-05
 Reference value :  1.55258e-05
 Reference value :  1.55276e-05
 Reference value :  1.55299e-05
 Reference value :  1.55331e-05
 Reference value :  1.55386e-05
 Reference value :  1.55443e-05
 Reference value :  1.55514e-05
 Reference value :  1.55562e-05
 Reference value :  1.55611e-05
 Reference value :  1.55670e-05
 Reference value :  1.55732e-05
 Reference value :  1.55820e-05
 Reference value :  1.55894e-05
 Reference value :  1.55981e-05
[...]
 Reference value :  1.74251e-04
 Reference value :  1.74252e-04
 Reference value :  1.74253e-04
 Reference value :  1.74253e-04
 Reference value :  1.74254e-04
 Reference value :  1.74255e-04
 Reference value :  1.74255e-04
 Reference value :  1.74256e-04
 Reference value :  1.74257e-04
 Reference value :  1.74258e-04
 Reference value :  1.74260e-04
 Reference value :  1.74262e-04
 Reference value :  1.74265e-04
 Reference value :  1.74269e-04
 Reference value :  1.74277e-04
 Reference value :  1.74293e-04
 Reference value :  1.74319e-04
 Reference value :  1.74351e-04
 Reference value :  1.74381e-04
 Reference value :  1.74402e-04
 Reference value :  1.74422e-04
 Reference value :  1.74442e-04
 Reference value :  1.74464e-04
 Reference value :  1.74481e-04
 Reference value :  1.74500e-04
 Reference value :  1.74500e-04
 Reference value :  1.74500e-04
 Reference value :  1.74500e-04
 Reference value :  1.74500e-04
 Reference value :  1.74500e-04
 Reference value :  1.74500e-04
 Reference value :  1.74500e-04
 Reference value :  1.74500e-04
 Reference value :  1.74500e-04
 Reference value :  1.74500e-04
 Reference value :  1.74501e-04
 Reference value :  1.74501e-04
 Reference value :  1.74501e-04
 Reference value :  1.74502e-04
 Reference value :  1.74502e-04
 Reference value :  1.74503e-04
 Reference value :  1.74504e-04
 Reference value :  1.74505e-04
 Reference value :  1.74505e-04
 Reference value :  1.74506e-04
 Reference value :  1.74507e-04
 Reference value :  1.74509e-04
 Reference value :  1.74510e-04
 Reference value :  1.74511e-04
 Reference value :  1.74512e-04
 Reference value :  1.74514e-04
 Reference value :  1.74515e-04
 Reference value :  1.74516e-04
 Reference value :  1.74519e-04
 Reference value :  1.74526e-04
 Reference value :  1.74536e-04
 Reference value :  1.74557e-04
 Reference value :  1.74600e-04
 Reference value :  1.74685e-04
 Reference value :  1.74750e-04
 Reference value :  1.74750e-04
 Reference value :  1.74750e-04
 Reference value :  1.74750e-04
 Reference value :  1.74750e-04
 Reference value :  1.74750e-04
 Reference value :  1.74750e-04
 Reference value :  1.74750e-04
 Reference value :  1.74750e-04
 Reference value :  1.74750e-04
 Reference value :  1.74750e-04
 Reference value :  1.74750e-04
 Reference value :  1.74750e-04
 Reference value :  1.74751e-04
 Reference value :  1.74751e-04
 Reference value :  1.74751e-04
 Reference value :  1.74752e-04
 Reference value :  1.74753e-04
 Reference value :  1.74753e-04
 Reference value :  1.74754e-04
 Reference value :  1.74755e-04
 Reference value :  1.74755e-04
 Reference value :  1.74756e-04
 Reference value :  1.74757e-04
 Reference value :  1.74758e-04
 Reference value :  1.74759e-04
 Reference value :  1.74760e-04
 Reference value :  1.74762e-04
 Reference value :  1.74764e-04
 Reference value :  1.74766e-04
 Reference value :  1.74769e-04
 Reference value :  1.74774e-04
 Reference value :  1.74783e-04
 Reference value :  1.74802e-04
 Reference value :  1.74839e-04
 Reference value :  1.74913e-04
 Reference value :  1.75000e-04
 Reference value :  1.75000e-04
 Reference value :  1.75000e-04
 Reference value :  1.75000e-04
 Reference value :  1.75000e-04
 Reference value :  1.75000e-04
 Reference value :  1.75000e-04
 Reference value :  1.75000e-04
 Reference value :  1.75000e-04
 Reference value :  1.75000e-04
 Reference value :  1.75000e-04
 Reference value :  1.75001e-04
 Reference value :  1.75001e-04
 Reference value :  1.75001e-04
 Reference value :  1.75002e-04
 Reference value :  1.75002e-04
 Reference value :  1.75003e-04
 Reference value :  1.75004e-04
 Reference value :  1.75005e-04
 Reference value :  1.75005e-04
 Reference value :  1.75006e-04
 Reference value :  1.75007e-04
 Reference value :  1.75007e-04
 Reference value :  1.75008e-04
 Reference value :  1.75009e-04
 Reference value :  1.75010e-04
 Reference value :  1.75012e-04
 Reference value :  1.75013e-04
 Reference value :  1.75014e-04
 Reference value :  1.75016e-04
 Reference value :  1.75017e-04
 Reference value :  1.75019e-04
 Reference value :  1.75020e-04
 Reference value :  1.75021e-04
 Reference value :  1.75023e-04
 Reference value :  1.75024e-04
 Reference value :  1.75026e-04
 Reference value :  1.75028e-04
 Reference value :  1.75030e-04
 Reference value :  1.75032e-04
 Reference value :  1.75034e-04
 Reference value :  1.75036e-04
 Reference value :  1.75038e-04
 Reference value :  1.75041e-04
 Reference value :  1.75045e-04
 Reference value :  1.75051e-04
 Reference value :  1.75060e-04
 Reference value :  1.75071e-04
 Reference value :  1.75087e-04
 Reference value :  1.75105e-04
 Reference value :  1.75135e-04
 Reference value :  1.75178e-04
 Reference value :  1.75245e-04
 Reference value :  1.75250e-04
 Reference value :  1.75250e-04
 Reference value :  1.75250e-04
 Reference value :  1.75250e-04
 Reference value :  1.75250e-04
 Reference value :  1.75250e-04
 Reference value :  1.75250e-04
 Reference value :  1.75250e-04
 Reference value :  1.75250e-04
 Reference value :  1.75250e-04
 Reference value :  1.75250e-04
 Reference value :  1.75250e-04
 Reference value :  1.75250e-04
 Reference value :  1.75251e-04
 Reference value :  1.75251e-04
 Reference value :  1.75251e-04
 Reference value :  1.75252e-04
 Reference value :  1.75253e-04
 Reference value :  1.75253e-04
 Reference value :  1.75254e-04
 Reference value :  1.75255e-04
 Reference value :  1.75255e-04
 Reference value :  1.75256e-04
 Reference value :  1.75257e-04
 Reference value :  1.75258e-04
 Reference value :  1.75260e-04
 Reference value :  1.75262e-04
 Reference value :  1.75265e-04
 Reference value :  1.75269e-04
 Reference value :  1.75277e-04
 Reference value :  1.75293e-04
 Reference value :  1.75325e-04
 Reference value :  1.75388e-04
 Reference value :  1.75500e-04
 Reference value :  1.75500e-04
 Reference value :  1.75500e-04
 Reference value :  1.75500e-04
 Reference value :  1.75500e-04
 Reference value :  1.75500e-04
 Reference value :  1.75500e-04
 Reference value :  1.75500e-04
 Reference value :  1.75500e-04
 Reference value :  1.75500e-04
 Reference value :  1.75500e-04
 Reference value :  1.75501e-04
 Reference value :  1.75501e-04
 Reference value :  1.75501e-04
 Reference value :  1.75502e-04
 Reference value :  1.75502e-04
 Reference value :  1.75503e-04
 Reference value :  1.75504e-04
 Reference value :  1.75505e-04
 Reference value :  1.75505e-04
 Reference value :  1.75506e-04
 Reference value :  1.75508e-04
 Reference value :  1.75509e-04
 Reference value :  1.75510e-04
 Reference value :  1.75512e-04
 Reference value :  1.75513e-04
 Reference value :  1.75514e-04
 Reference value :  1.75516e-04
 Reference value :  1.75518e-04
 Reference value :  1.75521e-04
 Reference value :  1.75525e-04
 Reference value :  1.75534e-04
 Reference value :  1.75550e-04
 Reference value :  1.75579e-04
 Reference value :  1.75637e-04
 Reference value :  1.75750e-04
 Reference value :  1.75750e-04
 Reference value :  1.75750e-04
 Reference value :  1.75750e-04
 Reference value :  1.75750e-04
 Reference value :  1.75750e-04
 Reference value :  1.75750e-04
 Reference value :  1.75750e-04
 Reference value :  1.75750e-04
 Reference value :  1.75750e-04
 Reference value :  1.75750e-04
 Reference value :  1.75750e-04
 Reference value :  1.75750e-04
 Reference value :  1.75751e-04
 Reference value :  1.75751e-04
 Reference value :  1.75751e-04
 Reference value :  1.75752e-04
 Reference value :  1.75753e-04
 Reference value :  1.75753e-04
 Reference value :  1.75754e-04
 Reference value :  1.75755e-04
 Reference value :  1.75755e-04
 Reference value :  1.75756e-04
 Reference value :  1.75757e-04
 Reference value :  1.75758e-04
 Reference value :  1.75759e-04
 Reference value :  1.75761e-04
 Reference value :  1.75763e-04
 Reference value :  1.75767e-04
 Reference value :  1.75772e-04
 Reference value :  1.75781e-04
 Reference value :  1.75800e-04
 Reference value :  1.75838e-04
 Reference value :  1.75915e-04
 Reference value :  1.76000e-04
 Reference value :  1.76000e-04
 Reference value :  1.76000e-04
 Reference value :  1.76000e-04
 Reference value :  1.76000e-04
 Reference value :  1.76000e-04
 Reference value :  1.76000e-04
 Reference value :  1.76000e-04
 Reference value :  1.76000e-04
 Reference value :  1.76000e-04
 Reference value :  1.76000e-04
 Reference value :  1.76001e-04
 Reference value :  1.76001e-04
 Reference value :  1.76001e-04
 Reference value :  1.76002e-04
 Reference value :  1.76002e-04
 Reference value :  1.76003e-04
 Reference value :  1.76004e-04
 Reference value :  1.76005e-04
 Reference value :  1.76005e-04
 Reference value :  1.76006e-04
 Reference value :  1.76007e-04
 Reference value :  1.76007e-04
 Reference value :  1.76008e-04
 Reference value :  1.76009e-04
 Reference value :  1.76011e-04
 Reference value :  1.76013e-04
 Reference value :  1.76015e-04
 Reference value :  1.76017e-04
 Reference value :  1.76019e-04
 Reference value :  1.76021e-04
 Reference value :  1.76023e-04
 Reference value :  1.76025e-04
 Reference value :  1.76026e-04
 Reference value :  1.76029e-04
 Reference value :  1.76031e-04
 Reference value :  1.76034e-04
 Reference value :  1.76039e-04
 Reference value :  1.76047e-04
 Reference value :  1.76057e-04
 Reference value :  1.76067e-04
 Reference value :  1.76081e-04
 Reference value :  1.76095e-04
 Reference value :  1.76108e-04
 Reference value :  1.76124e-04
 Reference value :  1.76150e-04
 Reference value :  1.76177e-04
 Reference value :  1.76231e-04
 Reference value :  1.76250e-04
 Reference value :  1.76250e-04
 Reference value :  1.76250e-04
 Reference value :  1.76250e-04
 Reference value :  1.76250e-04
 Reference value :  1.76250e-04
 Reference value :  1.76250e-04
 Reference value :  1.76250e-04
 Reference value :  1.76250e-04
 Reference value :  1.76250e-04
 Reference value :  1.76250e-04
 Reference value :  1.76250e-04
 Reference value :  1.76250e-04
 Reference value :  1.76251e-04
 Reference value :  1.76251e-04
 Reference value :  1.76251e-04
 Reference value :  1.76252e-04
 Reference value :  1.76253e-04
 Reference value :  1.76253e-04
 Reference value :  1.76254e-04
 Reference value :  1.76255e-04
 Reference value :  1.76255e-04
 Reference value :  1.76256e-04
 Reference value :  1.76257e-04
 Reference value :  1.76258e-04
 Reference value :  1.76260e-04
 Reference value :  1.76262e-04
 Reference value :  1.76266e-04
 Reference value :  1.76270e-04
 Reference value :  1.76278e-04
 Reference value :  1.76293e-04
 Reference value :  1.76325e-04
 Reference value :  1.76389e-04
 Reference value :  1.76500e-04
 Reference value :  1.76500e-04
 Reference value :  1.76500e-04
 Reference value :  1.76500e-04
 Reference value :  1.76500e-04
 Reference value :  1.76500e-04
 Reference value :  1.76500e-04
 Reference value :  1.76500e-04
 Reference value :  1.76500e-04
 Reference value :  1.76500e-04
 Reference value :  1.76500e-04
 Reference value :  1.76501e-04
 Reference value :  1.76501e-04
 Reference value :  1.76501e-04
 Reference value :  1.76502e-04
 Reference value :  1.76502e-04
 Reference value :  1.76503e-04
 Reference value :  1.76504e-04
 Reference value :  1.76505e-04
 Reference value :  1.76505e-04
 Reference value :  1.76506e-04
 Reference value :  1.76507e-04
 Reference value :  1.76509e-04
 Reference value :  1.76510e-04
 Reference value :  1.76511e-04
 Reference value :  1.76512e-04
 Reference value :  1.76514e-04
 Reference value :  1.76515e-04
 Reference value :  1.76516e-04
 Reference value :  1.76519e-04
 Reference value :  1.76525e-04
 Reference value :  1.76536e-04
 Reference value :  1.76558e-04
 Reference value :  1.76600e-04
 Reference value :  1.76686e-04
 Reference value :  1.76750e-04
 Reference value :  1.76750e-04
 Reference value :  1.76750e-04
 Reference value :  1.76750e-04
 Reference value :  1.76750e-04
 Reference value :  1.76750e-04
 Reference value :  1.76750e-04
 Reference value :  1.76750e-04
 Reference value :  1.76750e-04
 Reference value :  1.76750e-04
 Reference value :  1.76750e-04
 Reference value :  1.76750e-04
 Reference value :  1.76750e-04
 Reference value :  1.76751e-04
 Reference value :  1.76751e-04
 Reference value :  1.76751e-04
 Reference value :  1.76752e-04
 Reference value :  1.76753e-04
 Reference value :  1.76753e-04
 Reference value :  1.76754e-04
 Reference value :  1.76755e-04
 Reference value :  1.76755e-04
 Reference value :  1.76756e-04
 Reference value :  1.76757e-04
 Reference value :  1.76758e-04
 Reference value :  1.76759e-04
 Reference value :  1.76761e-04
 Reference value :  1.76763e-04
 Reference value :  1.76767e-04
 Reference value :  1.76772e-04
 Reference value :  1.76781e-04
 Reference value :  1.76801e-04
 Reference value :  1.76840e-04
 Reference value :  1.76917e-04
 Reference value :  1.77000e-04
 Reference value :  1.77000e-04
 Reference value :  1.77000e-04
 Reference value :  1.77000e-04
 Reference value :  1.77000e-04
 Reference value :  1.77000e-04
 Reference value :  1.77000e-04
 Reference value :  1.77000e-04
 Reference value :  1.77000e-04
 Reference value :  1.77000e-04
 Reference value :  1.77000e-04
 Reference value :  1.77001e-04
 Reference value :  1.77001e-04
 Reference value :  1.77001e-04
 Reference value :  1.77002e-04
 Reference value :  1.77002e-04
 Reference value :  1.77003e-04
 Reference value :  1.77004e-04
 Reference value :  1.77005e-04
 Reference value :  1.77005e-04
 Reference value :  1.77006e-04
 Reference value :  1.77007e-04
 Reference value :  1.77007e-04
 Reference value :  1.77008e-04
 Reference value :  1.77010e-04
 Reference value :  1.77011e-04
 Reference value :  1.77013e-04
 Reference value :  1.77015e-04
 Reference value :  1.77017e-04
 Reference value :  1.77020e-04
 Reference value :  1.77021e-04
 Reference value :  1.77023e-04
 Reference value :  1.77025e-04
 Reference value :  1.77026e-04
 Reference value :  1.77028e-04
 Reference value :  1.77031e-04
 Reference value :  1.77034e-04
 Reference value :  1.77040e-04
 Reference value :  1.77045e-04
 Reference value :  1.77053e-04
 Reference value :  1.77066e-04
 Reference value :  1.77089e-04
 Reference value :  1.77112e-04
 Reference value :  1.77140e-04
 Reference value :  1.77180e-04
 Reference value :  1.77224e-04
 Reference value :  1.77250e-04
 Reference value :  1.77250e-04
 Reference value :  1.77250e-04
 Reference value :  1.77250e-04
 Reference value :  1.77250e-04
 Reference value :  1.77250e-04
 Reference value :  1.77250e-04
 Reference value :  1.77250e-04
 Reference value :  1.77250e-04
 Reference value :  1.77250e-04
 Reference value :  1.77250e-04
 Reference value :  1.77250e-04
 Reference value :  1.77250e-04
 Reference value :  1.77251e-04
 Reference value :  1.77251e-04
 Reference value :  1.77251e-04
 Reference value :  1.77252e-04
 Reference value :  1.77253e-04
 Reference value :  1.77253e-04
 Reference value :  1.77254e-04
 Reference value :  1.77255e-04
 Reference value :  1.77255e-04
 Reference value :  1.77256e-04
 Reference value :  1.77257e-04
 Reference value :  1.77258e-04
 Reference value :  1.77260e-04
 Reference value :  1.77262e-04
 Reference value :  1.77265e-04
 Reference value :  1.77269e-04
 Reference value :  1.77277e-04
 Reference value :  1.77287e-04
 Reference value :  1.77302e-04
 Reference value :  1.77319e-04
 Reference value :  1.77345e-04
 Reference value :  1.77396e-04
 Reference value :  1.77475e-04
 Reference value :  1.77500e-04
 Reference value :  1.77500e-04
 Reference value :  1.77500e-04
 Reference value :  1.77500e-04
 Reference value :  1.77500e-04
 Reference value :  1.77500e-04
 Reference value :  1.77500e-04
 Reference value :  1.77500e-04
 Reference value :  1.77500e-04
 Reference value :  1.77500e-04
 Reference value :  1.77500e-04
 Reference value :  1.77501e-04
 Reference value :  1.77501e-04
 Reference value :  1.77501e-04
 Reference value :  1.77502e-04
 Reference value :  1.77502e-04
 Reference value :  1.77503e-04
 Reference value :  1.77504e-04
 Reference value :  1.77505e-04
 Reference value :  1.77505e-04
 Reference value :  1.77506e-04
 Reference value :  1.77508e-04
 Reference value :  1.77509e-04
 Reference value :  1.77510e-04
 Reference value :  1.77512e-04
 Reference value :  1.77513e-04
 Reference value :  1.77514e-04
 Reference value :  1.77516e-04
 Reference value :  1.77517e-04
 Reference value :  1.77520e-04
 Reference value :  1.77525e-04
 Reference value :  1.77534e-04
 Reference value :  1.77552e-04
 Reference value :  1.77587e-04
 Reference value :  1.77656e-04
 Reference value :  1.77750e-04
 Reference value :  1.77750e-04
 Reference value :  1.77750e-04
 Reference value :  1.77750e-04
 Reference value :  1.77750e-04
 Reference value :  1.77750e-04
 Reference value :  1.77750e-04
 Reference value :  1.77750e-04
 Reference value :  1.77750e-04
 Reference value :  1.77750e-04
 Reference value :  1.77750e-04
 Reference value :  1.77750e-04
 Reference value :  1.77750e-04
 Reference value :  1.77751e-04
 Reference value :  1.77751e-04
 Reference value :  1.77751e-04
 Reference value :  1.77752e-04
 Reference value :  1.77753e-04
 Reference value :  1.77753e-04
 Reference value :  1.77754e-04
 Reference value :  1.77755e-04
 Reference value :  1.77755e-04
 Reference value :  1.77756e-04
 Reference value :  1.77757e-04
 Reference value :  1.77758e-04
 Reference value :  1.77759e-04
 Reference value :  1.77761e-04
 Reference value :  1.77763e-04
 Reference value :  1.77766e-04
 Reference value :  1.77771e-04
 Reference value :  1.77780e-04
 Reference value :  1.77797e-04
 Reference value :  1.77833e-04
 Reference value :  1.77904e-04
 Reference value :  1.78000e-04
 Reference value :  1.78000e-04
 Reference value :  1.78000e-04
 Reference value :  1.78000e-04
 Reference value :  1.78000e-04
 Reference value :  1.78000e-04
 Reference value :  1.78000e-04
 Reference value :  1.78000e-04
 Reference value :  1.78000e-04
 Reference value :  1.78000e-04
 Reference value :  1.78000e-04
 Reference value :  1.78001e-04
 Reference value :  1.78001e-04
 Reference value :  1.78001e-04
 Reference value :  1.78002e-04
 Reference value :  1.78002e-04
 Reference value :  1.78003e-04
 Reference value :  1.78004e-04
 Reference value :  1.78005e-04
 Reference value :  1.78005e-04
 Reference value :  1.78006e-04
 Reference value :  1.78007e-04
 Reference value :  1.78008e-04
 Reference value :  1.78008e-04
 Reference value :  1.78010e-04
 Reference value :  1.78011e-04
 Reference value :  1.78013e-04
 Reference value :  1.78016e-04
 Reference value :  1.78018e-04
 Reference value :  1.78020e-04
 Reference value :  1.78022e-04
 Reference value :  1.78024e-04
 Reference value :  1.78028e-04
 Reference value :  1.78033e-04
 Reference value :  1.78042e-04
 Reference value :  1.78056e-04
 Reference value :  1.78080e-04
 Reference value :  1.78122e-04
 Reference value :  1.78195e-04
 Reference value :  1.78250e-04
 Reference value :  1.78250e-04
 Reference value :  1.78250e-04
 Reference value :  1.78250e-04
 Reference value :  1.78250e-04
 Reference value :  1.78250e-04
 Reference value :  1.78250e-04
 Reference value :  1.78250e-04
 Reference value :  1.78250e-04
 Reference value :  1.78250e-04
 Reference value :  1.78250e-04
 Reference value :  1.78250e-04
 Reference value :  1.78250e-04
 Reference value :  1.78251e-04
 Reference value :  1.78251e-04
 Reference value :  1.78251e-04
 Reference value :  1.78252e-04
 Reference value :  1.78253e-04
 Reference value :  1.78253e-04
 Reference value :  1.78254e-04
 Reference value :  1.78255e-04
 Reference value :  1.78256e-04
 Reference value :  1.78258e-04
 Reference value :  1.78259e-04
 Reference value :  1.78261e-04
 Reference value :  1.78264e-04
 Reference value :  1.78267e-04
 Reference value :  1.78273e-04
 Reference value :  1.78284e-04
 Reference value :  1.78307e-04
 Reference value :  1.78351e-04
 Reference value :  1.78441e-04
 Reference value :  1.78500e-04
No. of Data Rows : 27578
ngspice-44 done
