
Note: Compatibility modes selected: hs a


Circuit: ** sch_path: /home/madra/cace/sar-adc-using-sky130-pdk/runs/run_2025-09-01_19-33-07/parameters/inl/run_2/sar_output.sch

option SCALE: Scale is set to 1e-06 for instance and model parameters
option SCALE: Scale is set to 1e-06 for instance and model parameters
option SCALE: Scale is set to 1e-06 for instance and model parameters
option SCALE: Scale is set to 1e-06 for instance and model parameters
Doing analysis at TEMP = 27.000000 and TNOM = 27.000000

Using KLU as Direct Linear Solver
Operating point simulation skipped by 'uic',
  now using transient initial conditions.
 Reference value :  1.00000e-12
 Reference value :  1.19600e-12
 Reference value :  3.11778e-12
 Reference value :  1.35104e-11
 Reference value :  1.00000e-10
 Reference value :  1.34329e-10
 Reference value :  4.08964e-10
 Reference value :  9.50532e-10
 Reference value :  1.88572e-09
 Reference value :  4.10396e-09
 Reference value :  6.13042e-09
 Reference value :  7.59386e-09
 Reference value :  1.00212e-08
 Reference value :  1.10355e-08
 Reference value :  1.25115e-08
 Reference value :  1.41406e-08
 Reference value :  2.14407e-08
 Reference value :  3.09305e-08
 Reference value :  4.58091e-08
 Reference value :  9.70358e-08
 Reference value :  2.50110e-07
 Reference value :  2.50200e-07
 Reference value :  2.50253e-07
 Reference value :  2.50407e-07
 Reference value :  2.50730e-07
 Reference value :  2.51400e-07
 Reference value :  2.52372e-07
 Reference value :  2.53668e-07
 Reference value :  2.54222e-07
 Reference value :  2.55423e-07
 Reference value :  2.56166e-07
 Reference value :  2.58438e-07
 Reference value :  2.62629e-07
 Reference value :  2.72398e-07
 Reference value :  3.43847e-07
 Reference value :  5.00010e-07
 Reference value :  5.00070e-07
 Reference value :  5.00108e-07
 Reference value :  5.00156e-07
 Reference value :  5.00345e-07
 Reference value :  5.00863e-07
 Reference value :  5.01815e-07
 Reference value :  5.02775e-07
 Reference value :  5.03342e-07
 Reference value :  5.04594e-07
 Reference value :  5.06433e-07
 Reference value :  5.07731e-07
 Reference value :  5.10014e-07
 Reference value :  5.11177e-07
 Reference value :  5.13779e-07
 Reference value :  5.17458e-07
 Reference value :  5.23145e-07
 Reference value :  5.49049e-07
 Reference value :  6.21605e-07
 Reference value :  7.50110e-07
 Reference value :  7.50200e-07
 Reference value :  7.50224e-07
 Reference value :  7.50444e-07
 Reference value :  7.50831e-07
 Reference value :  7.51700e-07
 Reference value :  7.52703e-07
 Reference value :  7.54007e-07
 Reference value :  7.55255e-07
 Reference value :  7.56926e-07
 Reference value :  7.59789e-07
 Reference value :  7.74800e-07
 Reference value :  8.65999e-07
 Reference value :  1.00001e-06
 Reference value :  1.00007e-06
 Reference value :  1.00012e-06
 Reference value :  1.00022e-06
 Reference value :  1.00052e-06
 Reference value :  1.00131e-06
 Reference value :  1.00182e-06
 Reference value :  1.00231e-06
 Reference value :  1.00333e-06
 Reference value :  1.00449e-06
 Reference value :  1.00586e-06
 Reference value :  1.00749e-06
 Reference value :  1.01010e-06
 Reference value :  1.01280e-06
 Reference value :  1.01379e-06
 Reference value :  1.01587e-06
 Reference value :  1.01802e-06
 Reference value :  1.02096e-06
 Reference value :  1.03079e-06
 Reference value :  1.07622e-06
 Reference value :  1.18547e-06
 Reference value :  1.24026e-06
 Reference value :  1.25011e-06
 Reference value :  1.25017e-06
 Reference value :  1.25022e-06
 Reference value :  1.25044e-06
 Reference value :  1.25126e-06
 Reference value :  1.25214e-06
 Reference value :  1.25345e-06
 Reference value :  1.25394e-06
 Reference value :  1.25512e-06
 Reference value :  1.25659e-06
 Reference value :  1.26268e-06
 Reference value :  1.28697e-06
 Reference value :  1.50000e-06
 Reference value :  1.50007e-06
 Reference value :  1.50012e-06
 Reference value :  1.50034e-06
 Reference value :  1.50131e-06
 Reference value :  1.50223e-06
 Reference value :  1.50322e-06
 Reference value :  1.50442e-06
 Reference value :  1.50522e-06
 Reference value :  1.50671e-06
 Reference value :  1.50832e-06
 Reference value :  1.51031e-06
 Reference value :  1.51798e-06
 Reference value :  1.57569e-06
 Reference value :  1.75011e-06
 Reference value :  1.75020e-06
 Reference value :  1.75032e-06
 Reference value :  1.75083e-06
 Reference value :  1.75170e-06
 Reference value :  1.75270e-06
 Reference value :  1.75401e-06
 Reference value :  1.75598e-06
 Reference value :  1.75765e-06
 Reference value :  1.75978e-06
 Reference value :  1.76679e-06
 Reference value :  1.79468e-06
 Reference value :  2.00000e-06
 Reference value :  2.00007e-06
 Reference value :  2.00012e-06
 Reference value :  2.00034e-06
 Reference value :  2.00086e-06
 Reference value :  2.00231e-06
 Reference value :  2.00334e-06
 Reference value :  2.00457e-06
 Reference value :  2.00582e-06
 Reference value :  2.00733e-06
 Reference value :  2.01047e-06
 Reference value :  2.01155e-06
 Reference value :  2.01351e-06
 Reference value :  2.01529e-06
 Reference value :  2.01725e-06
 Reference value :  2.01959e-06
 Reference value :  2.02751e-06
 Reference value :  2.03187e-06
 Reference value :  2.04247e-06
 Reference value :  2.04931e-06
 Reference value :  2.05888e-06
 Reference value :  2.09242e-06
 Reference value :  2.18758e-06
 Reference value :  2.25013e-06
 Reference value :  2.25021e-06
 Reference value :  2.25032e-06
 Reference value :  2.25083e-06
 Reference value :  2.25214e-06
 Reference value :  2.25350e-06
 Reference value :  2.25401e-06
 Reference value :  2.25525e-06
 Reference value :  2.25676e-06
 Reference value :  2.26312e-06
 Reference value :  2.29411e-06
 Reference value :  2.50000e-06
 Reference value :  2.50007e-06
 Reference value :  2.50012e-06
 Reference value :  2.50034e-06
 Reference value :  2.50086e-06
 Reference value :  2.50231e-06
 Reference value :  2.50333e-06
 Reference value :  2.50455e-06
 Reference value :  2.50638e-06
 Reference value :  2.50715e-06
 Reference value :  2.50887e-06
 Reference value :  2.51216e-06
 Reference value :  2.53504e-06
 Reference value :  2.75010e-06
 Reference value :  2.75017e-06
 Reference value :  2.75022e-06
 Reference value :  2.75045e-06
 Reference value :  2.75127e-06
 Reference value :  2.75215e-06
 Reference value :  2.75351e-06
 Reference value :  2.75402e-06
 Reference value :  2.75527e-06
 Reference value :  2.75801e-06
 Reference value :  2.76781e-06
 Reference value :  2.88486e-06
 Reference value :  3.00003e-06
 Reference value :  3.00011e-06
 Reference value :  3.00034e-06
 Reference value :  3.00131e-06
 Reference value :  3.00278e-06
 Reference value :  3.00332e-06
 Reference value :  3.00449e-06
 Reference value :  3.00586e-06
 Reference value :  3.00853e-06
 Reference value :  3.01150e-06
 Reference value :  3.01376e-06
 Reference value :  3.01685e-06
 Reference value :  3.02067e-06
 Reference value :  3.03847e-06
 Reference value :  3.11500e-06
 Reference value :  3.25011e-06
 Reference value :  3.25020e-06
 Reference value :  3.25026e-06
 Reference value :  3.25060e-06
 Reference value :  3.25170e-06
 Reference value :  3.25271e-06
 Reference value :  3.25350e-06
 Reference value :  3.25401e-06
 Reference value :  3.25525e-06
 Reference value :  3.25676e-06
 Reference value :  3.26314e-06
 Reference value :  3.29427e-06
 Reference value :  3.50000e-06
 Reference value :  3.50007e-06
 Reference value :  3.50011e-06
 Reference value :  3.50022e-06
 Reference value :  3.50052e-06
 Reference value :  3.50131e-06
 Reference value :  3.50231e-06
 Reference value :  3.50333e-06
 Reference value :  3.50455e-06
 Reference value :  3.50550e-06
 Reference value :  3.50638e-06
 Reference value :  3.50716e-06
 Reference value :  3.50802e-06
 Reference value :  3.50888e-06
 Reference value :  3.51094e-06
 Reference value :  3.51802e-06
 Reference value :  3.55249e-06
 Reference value :  3.75010e-06
 Reference value :  3.75013e-06
 Reference value :  3.75020e-06
 Reference value :  3.75022e-06
 Reference value :  3.75045e-06
 Reference value :  3.75084e-06
 Reference value :  3.75171e-06
 Reference value :  3.75273e-06
 Reference value :  3.75351e-06
 Reference value :  3.75402e-06
 Reference value :  3.75527e-06
 Reference value :  3.75689e-06
 Reference value :  3.76020e-06
 Reference value :  3.76785e-06
 Reference value :  3.82344e-06
 Reference value :  4.00001e-06
 Reference value :  4.00010e-06
 Reference value :  4.00016e-06
 Reference value :  4.00052e-06
 Reference value :  4.00131e-06
 Reference value :  4.00231e-06
 Reference value :  4.00332e-06
 Reference value :  4.00449e-06
 Reference value :  4.00585e-06
 Reference value :  4.00852e-06
 Reference value :  4.01006e-06
 Reference value :  4.01152e-06
 Reference value :  4.01392e-06
 Reference value :  4.01606e-06
 Reference value :  4.01819e-06
 Reference value :  4.02309e-06
 Reference value :  4.03683e-06
 Reference value :  4.04378e-06
 Reference value :  4.05606e-06
 Reference value :  4.06762e-06
 Reference value :  4.08761e-06
 Reference value :  4.12787e-06
 Reference value :  4.16275e-06
 Reference value :  4.17277e-06
 Reference value :  4.20417e-06
 Reference value :  4.25011e-06
 Reference value :  4.25020e-06
 Reference value :  4.25025e-06
 Reference value :  4.25054e-06
 Reference value :  4.25146e-06
 Reference value :  4.25312e-06
 Reference value :  4.25440e-06
 Reference value :  4.25563e-06
 Reference value :  4.25906e-06
 Reference value :  4.27138e-06
 Reference value :  4.36269e-06
 Reference value :  4.50001e-06
 Reference value :  4.50010e-06
 Reference value :  4.50012e-06
 Reference value :  4.50035e-06
 Reference value :  4.50093e-06
 Reference value :  4.50196e-06
 Reference value :  4.50245e-06
 Reference value :  4.50350e-06
 Reference value :  4.50490e-06
 Reference value :  4.50641e-06
 Reference value :  4.50828e-06
 Reference value :  4.51020e-06
 Reference value :  4.51126e-06
 Reference value :  4.51901e-06
 Reference value :  4.54281e-06
 Reference value :  4.63378e-06
 Reference value :  4.75011e-06
 Reference value :  4.75017e-06
 Reference value :  4.75022e-06
 Reference value :  4.75032e-06
 Reference value :  4.75054e-06
 Reference value :  4.75099e-06
 Reference value :  4.75194e-06
 Reference value :  4.75311e-06
 Reference value :  4.75440e-06
 Reference value :  4.75566e-06
 Reference value :  4.75725e-06
 Reference value :  4.76455e-06
 Reference value :  4.85256e-06
 Reference value :  5.00003e-06
 Reference value :  5.00011e-06
 Reference value :  5.00022e-06
 Reference value :  5.00093e-06
 Reference value :  5.00245e-06
 Reference value :  5.00349e-06
 Reference value :  5.00466e-06
 Reference value :  5.00588e-06
 Reference value :  5.00872e-06
 Reference value :  5.01186e-06
 Reference value :  5.01441e-06
 Reference value :  5.01633e-06
 Reference value :  5.02004e-06
 Reference value :  5.02851e-06
 Reference value :  5.03782e-06
 Reference value :  5.04976e-06
 Reference value :  5.06109e-06
 Reference value :  5.07306e-06
 Reference value :  5.10854e-06
 Reference value :  5.25011e-06
 Reference value :  5.25021e-06
 Reference value :  5.25032e-06
 Reference value :  5.25071e-06
 Reference value :  5.25193e-06
 Reference value :  5.25376e-06
 Reference value :  5.25493e-06
 Reference value :  5.25636e-06
 Reference value :  5.26107e-06
 Reference value :  5.30255e-06
 Reference value :  5.50000e-06
 Reference value :  5.50007e-06
 Reference value :  5.50012e-06
 Reference value :  5.50035e-06
 Reference value :  5.50093e-06
 Reference value :  5.50196e-06
 Reference value :  5.50293e-06
 Reference value :  5.50405e-06
 Reference value :  5.50560e-06
 Reference value :  5.50743e-06
 Reference value :  5.50928e-06
 Reference value :  5.51138e-06
 Reference value :  5.51875e-06
 Reference value :  5.55926e-06
 Reference value :  5.75010e-06
 Reference value :  5.75017e-06
 Reference value :  5.75022e-06
 Reference value :  5.75032e-06
 Reference value :  5.75054e-06
 Reference value :  5.75099e-06
 Reference value :  5.75194e-06
 Reference value :  5.75311e-06
 Reference value :  5.75440e-06
 Reference value :  5.75567e-06
 Reference value :  5.75644e-06
 Reference value :  5.75808e-06
 Reference value :  5.75904e-06
 Reference value :  5.76192e-06
 Reference value :  5.76722e-06
 Reference value :  5.78095e-06
 Reference value :  5.85157e-06
 Reference value :  6.00001e-06
 Reference value :  6.00007e-06
 Reference value :  6.00011e-06
 Reference value :  6.00016e-06
 Reference value :  6.00035e-06
 Reference value :  6.00093e-06
 Reference value :  6.00245e-06
 Reference value :  6.00350e-06
 Reference value :  6.00459e-06
 Reference value :  6.00646e-06
 Reference value :  6.00970e-06
 Reference value :  6.01175e-06
 Reference value :  6.01377e-06
 Reference value :  6.01552e-06
 Reference value :  6.01870e-06
 Reference value :  6.02184e-06
 Reference value :  6.02381e-06
 Reference value :  6.02532e-06
 Reference value :  6.02866e-06
 Reference value :  6.03840e-06
 Reference value :  6.07661e-06
 Reference value :  6.20827e-06
 Reference value :  6.25011e-06
 Reference value :  6.25017e-06
 Reference value :  6.25021e-06
 Reference value :  6.25025e-06
 Reference value :  6.25039e-06
 Reference value :  6.25071e-06
 Reference value :  6.25142e-06
 Reference value :  6.25192e-06
 Reference value :  6.25308e-06
 Reference value :  6.25434e-06
 Reference value :  6.25555e-06
 Reference value :  6.25632e-06
 Reference value :  6.25881e-06
 Reference value :  6.26989e-06
 Reference value :  6.30112e-06
 Reference value :  6.50000e-06
 Reference value :  6.50007e-06
 Reference value :  6.50012e-06
 Reference value :  6.50035e-06
 Reference value :  6.50093e-06
 Reference value :  6.50196e-06
 Reference value :  6.50245e-06
 Reference value :  6.50350e-06
 Reference value :  6.50410e-06
 Reference value :  6.50569e-06
 Reference value :  6.50641e-06
 Reference value :  6.50925e-06
 Reference value :  6.51125e-06
 Reference value :  6.52696e-06
 Reference value :  6.63431e-06
 Reference value :  6.75013e-06
 Reference value :  6.75020e-06
 Reference value :  6.75025e-06
 Reference value :  6.75039e-06
 Reference value :  6.75099e-06
 Reference value :  6.75194e-06
 Reference value :  6.75382e-06
 Reference value :  6.75503e-06
 Reference value :  6.75643e-06
 Reference value :  6.76116e-06
 Reference value :  6.80560e-06
 Reference value :  7.00001e-06
 Reference value :  7.00010e-06
 Reference value :  7.00016e-06
 Reference value :  7.00059e-06
 Reference value :  7.00145e-06
 Reference value :  7.00245e-06
 Reference value :  7.00349e-06
 Reference value :  7.00466e-06
 Reference value :  7.00659e-06
 Reference value :  7.01046e-06
 Reference value :  7.01186e-06
 Reference value :  7.01441e-06
 Reference value :  7.01634e-06
 Reference value :  7.02004e-06
 Reference value :  7.02796e-06
 Reference value :  7.06050e-06
 Reference value :  7.16226e-06
 Reference value :  7.25011e-06
 Reference value :  7.25020e-06
 Reference value :  7.25025e-06
 Reference value :  7.25054e-06
 Reference value :  7.25142e-06
 Reference value :  7.25308e-06
 Reference value :  7.25434e-06
 Reference value :  7.25636e-06
 Reference value :  7.26438e-06
 Reference value :  7.34260e-06
 Reference value :  7.50001e-06
 Reference value :  7.50007e-06
 Reference value :  7.50012e-06
 Reference value :  7.50022e-06
 Reference value :  7.50059e-06
 Reference value :  7.50145e-06
 Reference value :  7.50245e-06
 Reference value :  7.50350e-06
 Reference value :  7.50488e-06
 Reference value :  7.50641e-06
 Reference value :  7.50826e-06
 Reference value :  7.51124e-06
 Reference value :  7.51894e-06
 Reference value :  7.63258e-06
 Reference value :  7.75013e-06
 Reference value :  7.75021e-06
 Reference value :  7.75032e-06
 Reference value :  7.75054e-06
 Reference value :  7.75099e-06
 Reference value :  7.75194e-06
 Reference value :  7.75311e-06
 Reference value :  7.75440e-06
 Reference value :  7.75566e-06
 Reference value :  7.75725e-06
 Reference value :  7.76454e-06
 Reference value :  7.85014e-06
 Reference value :  8.00001e-06
 Reference value :  8.00007e-06
 Reference value :  8.00011e-06
 Reference value :  8.00022e-06
 Reference value :  8.00059e-06
 Reference value :  8.00196e-06
 Reference value :  8.00297e-06
 Reference value :  8.00349e-06
 Reference value :  8.00466e-06
 Reference value :  8.00659e-06
 Reference value :  8.00814e-06
 Reference value :  8.00996e-06
 Reference value :  8.01736e-06
 Reference value :  8.07591e-06
 Reference value :  8.25011e-06
 Reference value :  8.25020e-06
 Reference value :  8.25026e-06
 Reference value :  8.25060e-06
 Reference value :  8.25118e-06
 Reference value :  8.25205e-06
 Reference value :  8.25329e-06
 Reference value :  8.25503e-06
 Reference value :  8.25693e-06
 Reference value :  8.25853e-06
 Reference value :  8.26316e-06
 Reference value :  8.29670e-06
 Reference value :  8.50000e-06
 Reference value :  8.50007e-06
 Reference value :  8.50012e-06
 Reference value :  8.50035e-06
 Reference value :  8.50094e-06
 Reference value :  8.50143e-06
 Reference value :  8.50244e-06
 Reference value :  8.50357e-06
 Reference value :  8.50489e-06
 Reference value :  8.50714e-06
 Reference value :  8.51378e-06
 Reference value :  8.52616e-06
 Reference value :  8.53074e-06
 Reference value :  8.53819e-06
 Reference value :  8.54371e-06
 Reference value :  8.55003e-06
 Reference value :  8.56308e-06
 Reference value :  8.58309e-06
 Reference value :  8.66373e-06
 Reference value :  8.75011e-06
 Reference value :  8.75020e-06
 Reference value :  8.75026e-06
 Reference value :  8.75060e-06
 Reference value :  8.75170e-06
 Reference value :  8.75348e-06
 Reference value :  8.75456e-06
 Reference value :  8.75521e-06
 Reference value :  8.75593e-06
 Reference value :  8.75824e-06
 Reference value :  8.76297e-06
 Reference value :  8.77567e-06
 Reference value :  8.89078e-06
 Reference value :  9.00003e-06
 Reference value :  9.00010e-06
 Reference value :  9.00016e-06
 Reference value :  9.00052e-06
 Reference value :  9.00131e-06
 Reference value :  9.00231e-06
 Reference value :  9.00332e-06
 Reference value :  9.00454e-06
 Reference value :  9.00757e-06
 Reference value :  9.00985e-06
 Reference value :  9.01108e-06
 Reference value :  9.01366e-06
 Reference value :  9.01710e-06
 Reference value :  9.02691e-06
 Reference value :  9.06839e-06
 Reference value :  9.25011e-06
 Reference value :  9.25020e-06
 Reference value :  9.25026e-06
 Reference value :  9.25060e-06
 Reference value :  9.25170e-06
 Reference value :  9.25270e-06
 Reference value :  9.25401e-06
 Reference value :  9.25526e-06
 Reference value :  9.25803e-06
 Reference value :  9.27729e-06
 Reference value :  9.50000e-06
 Reference value :  9.50007e-06
 Reference value :  9.50012e-06
 Reference value :  9.50022e-06
 Reference value :  9.50086e-06
 Reference value :  9.50231e-06
 Reference value :  9.50332e-06
 Reference value :  9.50448e-06
 Reference value :  9.50585e-06
 Reference value :  9.50852e-06
 Reference value :  9.51005e-06
 Reference value :  9.51274e-06
 Reference value :  9.51374e-06
 Reference value :  9.51582e-06
 Reference value :  9.51786e-06
 Reference value :  9.52061e-06
 Reference value :  9.53035e-06
 Reference value :  9.55342e-06
 Reference value :  9.62448e-06
 Reference value :  9.68437e-06
 Reference value :  9.73834e-06
 Reference value :  9.75010e-06
 Reference value :  9.75013e-06
 Reference value :  9.75020e-06
 Reference value :  9.75022e-06
 Reference value :  9.75044e-06
 Reference value :  9.75083e-06
 Reference value :  9.75170e-06
 Reference value :  9.75271e-06
 Reference value :  9.75344e-06
 Reference value :  9.75394e-06
 Reference value :  9.75512e-06
 Reference value :  9.75583e-06
 Reference value :  9.75811e-06
 Reference value :  9.76267e-06
 Reference value :  9.78823e-06
 Reference value :  9.98449e-06
 Reference value :  1.00000e-05
 Reference value :  1.00001e-05
 Reference value :  1.00002e-05
 Reference value :  1.00003e-05
 Reference value :  1.00009e-05
 Reference value :  1.00017e-05
 Reference value :  1.00032e-05
 Reference value :  1.00044e-05
 Reference value :  1.00052e-05
 Reference value :  1.00067e-05
 Reference value :  1.00083e-05
 Reference value :  1.00103e-05
 Reference value :  1.00138e-05
 Reference value :  1.00259e-05
 Reference value :  1.00743e-05
 Reference value :  1.02501e-05
 Reference value :  1.02501e-05
 Reference value :  1.02502e-05
 Reference value :  1.02503e-05
 Reference value :  1.02504e-05
 Reference value :  1.02508e-05
 Reference value :  1.02517e-05
 Reference value :  1.02527e-05
 Reference value :  1.02540e-05
 Reference value :  1.02553e-05
 Reference value :  1.02560e-05
 Reference value :  1.02577e-05
 Reference value :  1.02598e-05
 Reference value :  1.02668e-05
 Reference value :  1.03167e-05
 Reference value :  1.05000e-05
 Reference value :  1.05000e-05
 Reference value :  1.05001e-05
 Reference value :  1.05002e-05
 Reference value :  1.05009e-05
 Reference value :  1.05018e-05
 Reference value :  1.05028e-05
 Reference value :  1.05033e-05
 Reference value :  1.05039e-05
 Reference value :  1.05052e-05
 Reference value :  1.05058e-05
 Reference value :  1.05073e-05
 Reference value :  1.05105e-05
 Reference value :  1.05127e-05
 Reference value :  1.05135e-05
 Reference value :  1.05153e-05
 Reference value :  1.05172e-05
 Reference value :  1.05208e-05
 Reference value :  1.05298e-05
 Reference value :  1.05396e-05
 Reference value :  1.05442e-05
 Reference value :  1.05469e-05
 Reference value :  1.05525e-05
 Reference value :  1.05744e-05
 Reference value :  1.06595e-05
 Reference value :  1.07501e-05
 Reference value :  1.07502e-05
 Reference value :  1.07503e-05
 Reference value :  1.07508e-05
 Reference value :  1.07517e-05
 Reference value :  1.07535e-05
 Reference value :  1.07540e-05
 Reference value :  1.07560e-05
 Reference value :  1.07602e-05
 Reference value :  1.07946e-05
 Reference value :  1.10000e-05
 Reference value :  1.10001e-05
 Reference value :  1.10002e-05
 Reference value :  1.10005e-05
 Reference value :  1.10013e-05
 Reference value :  1.10028e-05
 Reference value :  1.10039e-05
 Reference value :  1.10064e-05
 Reference value :  1.10071e-05
 Reference value :  1.10089e-05
 Reference value :  1.10109e-05
 Reference value :  1.10145e-05
 Reference value :  1.10345e-05
 Reference value :  1.10869e-05
 Reference value :  1.12501e-05
 Reference value :  1.12502e-05
 Reference value :  1.12502e-05
 Reference value :  1.12504e-05
 Reference value :  1.12513e-05
 Reference value :  1.12527e-05
 Reference value :  1.12540e-05
 Reference value :  1.12553e-05
 Reference value :  1.12580e-05
 Reference value :  1.12677e-05
 Reference value :  1.12922e-05
 Reference value :  1.15000e-05
 Reference value :  1.15001e-05
 Reference value :  1.15001e-05
 Reference value :  1.15002e-05
 Reference value :  1.15005e-05
 Reference value :  1.15013e-05
 Reference value :  1.15023e-05
 Reference value :  1.15033e-05
 Reference value :  1.15045e-05
 Reference value :  1.15059e-05
 Reference value :  1.15075e-05
 Reference value :  1.15101e-05
 Reference value :  1.15128e-05
 Reference value :  1.15147e-05
 Reference value :  1.15168e-05
 Reference value :  1.15190e-05
 Reference value :  1.15245e-05
 Reference value :  1.15507e-05
 Reference value :  1.16545e-05
 Reference value :  1.17501e-05
 Reference value :  1.17501e-05
 Reference value :  1.17502e-05
 Reference value :  1.17503e-05
 Reference value :  1.17506e-05
 Reference value :  1.17513e-05
 Reference value :  1.17521e-05
 Reference value :  1.17535e-05
 Reference value :  1.17546e-05
 Reference value :  1.17560e-05
 Reference value :  1.17602e-05
 Reference value :  1.17765e-05
 Reference value :  1.20000e-05
 Reference value :  1.20001e-05
 Reference value :  1.20001e-05
 Reference value :  1.20003e-05
 Reference value :  1.20013e-05
 Reference value :  1.20023e-05
 Reference value :  1.20033e-05
 Reference value :  1.20045e-05
 Reference value :  1.20064e-05
 Reference value :  1.20071e-05
 Reference value :  1.20089e-05
 Reference value :  1.20109e-05
 Reference value :  1.20179e-05
 Reference value :  1.20518e-05
 Reference value :  1.22501e-05
 Reference value :  1.22502e-05
 Reference value :  1.22502e-05
 Reference value :  1.22504e-05
 Reference value :  1.22513e-05
 Reference value :  1.22522e-05
 Reference value :  1.22535e-05
 Reference value :  1.22540e-05
 Reference value :  1.22546e-05
 Reference value :  1.22560e-05
 Reference value :  1.22580e-05
 Reference value :  1.22677e-05
 Reference value :  1.22923e-05
 Reference value :  1.25000e-05
 Reference value :  1.25001e-05
 Reference value :  1.25002e-05
 Reference value :  1.25009e-05
 Reference value :  1.25018e-05
 Reference value :  1.25028e-05
 Reference value :  1.25033e-05
 Reference value :  1.25045e-05
 Reference value :  1.25059e-05
 Reference value :  1.25075e-05
 Reference value :  1.25101e-05
 Reference value :  1.25129e-05
 Reference value :  1.25139e-05
 Reference value :  1.25160e-05
 Reference value :  1.25170e-05
 Reference value :  1.25192e-05
 Reference value :  1.25249e-05
 Reference value :  1.25436e-05
 Reference value :  1.25576e-05
 Reference value :  1.25696e-05
 Reference value :  1.25882e-05
 Reference value :  1.26281e-05
 Reference value :  1.26621e-05
 Reference value :  1.26733e-05
 Reference value :  1.26944e-05
 Reference value :  1.27501e-05
 Reference value :  1.27502e-05
 Reference value :  1.27502e-05
 Reference value :  1.27503e-05
 Reference value :  1.27505e-05
 Reference value :  1.27510e-05
 Reference value :  1.27519e-05
 Reference value :  1.27531e-05
 Reference value :  1.27538e-05
 Reference value :  1.27544e-05
 Reference value :  1.27565e-05
 Reference value :  1.27591e-05
 Reference value :  1.27718e-05
 Reference value :  1.28664e-05
 Reference value :  1.30000e-05
 Reference value :  1.30001e-05
 Reference value :  1.30001e-05
 Reference value :  1.30002e-05
 Reference value :  1.30003e-05
 Reference value :  1.30015e-05
 Reference value :  1.30024e-05
 Reference value :  1.30035e-05
 Reference value :  1.30049e-05
 Reference value :  1.30064e-05
 Reference value :  1.30093e-05
 Reference value :  1.30113e-05
 Reference value :  1.30267e-05
 Reference value :  1.32460e-05
 Reference value :  1.32501e-05
 Reference value :  1.32502e-05
 Reference value :  1.32503e-05
 Reference value :  1.32507e-05
 Reference value :  1.32519e-05
 Reference value :  1.32531e-05
 Reference value :  1.32544e-05
 Reference value :  1.32557e-05
 Reference value :  1.32564e-05
 Reference value :  1.32589e-05
 Reference value :  1.32646e-05
 Reference value :  1.33057e-05
 Reference value :  1.34417e-05
 Reference value :  1.35000e-05
 Reference value :  1.35001e-05
 Reference value :  1.35002e-05
 Reference value :  1.35006e-05
 Reference value :  1.35015e-05
 Reference value :  1.35024e-05
 Reference value :  1.35035e-05
 Reference value :  1.35047e-05
 Reference value :  1.35059e-05
 Reference value :  1.35087e-05
 Reference value :  1.35119e-05
 Reference value :  1.35144e-05
 Reference value :  1.35163e-05
 Reference value :  1.35188e-05
 Reference value :  1.35248e-05
 Reference value :  1.35378e-05
 Reference value :  1.35498e-05
 Reference value :  1.35612e-05
 Reference value :  1.35731e-05
 Reference value :  1.36085e-05
 Reference value :  1.37501e-05
 Reference value :  1.37501e-05
 Reference value :  1.37502e-05
 Reference value :  1.37502e-05
 Reference value :  1.37503e-05
 Reference value :  1.37505e-05
 Reference value :  1.37510e-05
 Reference value :  1.37519e-05
 Reference value :  1.37531e-05
 Reference value :  1.37543e-05
 Reference value :  1.37555e-05
 Reference value :  1.37564e-05
 Reference value :  1.37589e-05
 Reference value :  1.37705e-05
 Reference value :  1.38423e-05
 Reference value :  1.40000e-05
 Reference value :  1.40001e-05
 Reference value :  1.40002e-05
 Reference value :  1.40003e-05
 Reference value :  1.40009e-05
 Reference value :  1.40020e-05
 Reference value :  1.40024e-05
 Reference value :  1.40035e-05
 Reference value :  1.40047e-05
 Reference value :  1.40065e-05
 Reference value :  1.40084e-05
 Reference value :  1.40093e-05
 Reference value :  1.40114e-05
 Reference value :  1.40187e-05
 Reference value :  1.40588e-05
 Reference value :  1.42501e-05
 Reference value :  1.42502e-05
 Reference value :  1.42502e-05
 Reference value :  1.42504e-05
 Reference value :  1.42515e-05
 Reference value :  1.42531e-05
 Reference value :  1.42544e-05
 Reference value :  1.42557e-05
 Reference value :  1.42573e-05
 Reference value :  1.42603e-05
 Reference value :  1.42672e-05
 Reference value :  1.42948e-05
 Reference value :  1.44215e-05
 Reference value :  1.45000e-05
 Reference value :  1.45001e-05
 Reference value :  1.45002e-05
 Reference value :  1.45009e-05
 Reference value :  1.45024e-05
 Reference value :  1.45035e-05
 Reference value :  1.45046e-05
 Reference value :  1.45058e-05
 Reference value :  1.45082e-05
 Reference value :  1.45107e-05
 Reference value :  1.45129e-05
 Reference value :  1.45138e-05
 Reference value :  1.45155e-05
 Reference value :  1.45174e-05
 Reference value :  1.45184e-05
 Reference value :  1.45213e-05
 Reference value :  1.45245e-05
 Reference value :  1.45275e-05
 Reference value :  1.45349e-05
 Reference value :  1.45572e-05
 Reference value :  1.46386e-05
 Reference value :  1.47501e-05
 Reference value :  1.47501e-05
 Reference value :  1.47502e-05
 Reference value :  1.47503e-05
 Reference value :  1.47504e-05
 Reference value :  1.47507e-05
 Reference value :  1.47514e-05
 Reference value :  1.47524e-05
 Reference value :  1.47538e-05
 Reference value :  1.47543e-05
 Reference value :  1.47556e-05
 Reference value :  1.47563e-05
 Reference value :  1.47588e-05
 Reference value :  1.47701e-05
 Reference value :  1.48433e-05
 Reference value :  1.50000e-05
 Reference value :  1.50001e-05
 Reference value :  1.50001e-05
 Reference value :  1.50003e-05
 Reference value :  1.50015e-05
 Reference value :  1.50024e-05
 Reference value :  1.50035e-05
 Reference value :  1.50049e-05
 Reference value :  1.50064e-05
 Reference value :  1.50083e-05
 Reference value :  1.50102e-05
 Reference value :  1.50125e-05
 Reference value :  1.50269e-05
 Reference value :  1.51328e-05
 Reference value :  1.52501e-05
 Reference value :  1.52502e-05
 Reference value :  1.52503e-05
 Reference value :  1.52504e-05
 Reference value :  1.52510e-05
 Reference value :  1.52519e-05
 Reference value :  1.52531e-05
 Reference value :  1.52544e-05
 Reference value :  1.52564e-05
 Reference value :  1.52589e-05
 Reference value :  1.52707e-05
 Reference value :  1.53503e-05
 Reference value :  1.55011e-05
 Reference value :  1.55044e-05
 Reference value :  1.55064e-05
 Reference value :  1.55082e-05
 Reference value :  1.55106e-05
 Reference value :  1.55133e-05
 Reference value :  1.55153e-05
 Reference value :  1.55174e-05
 Reference value :  1.55197e-05
 Reference value :  1.55253e-05
 Reference value :  1.55332e-05
 Reference value :  1.55510e-05
 Reference value :  1.55981e-05
 Reference value :  1.57333e-05
 Reference value :  1.57501e-05
 Reference value :  1.57502e-05
 Reference value :  1.57503e-05
 Reference value :  1.57505e-05
 Reference value :  1.57509e-05
 Reference value :  1.57515e-05
 Reference value :  1.57524e-05
 Reference value :  1.57537e-05
 Reference value :  1.57543e-05
 Reference value :  1.57555e-05
 Reference value :  1.57563e-05
 Reference value :  1.57587e-05
 Reference value :  1.57695e-05
 Reference value :  1.58263e-05
 Reference value :  1.60000e-05
 Reference value :  1.60000e-05
 Reference value :  1.60001e-05
 Reference value :  1.60002e-05
 Reference value :  1.60006e-05
 Reference value :  1.60015e-05
 Reference value :  1.60024e-05
 Reference value :  1.60035e-05
 Reference value :  1.60049e-05
 Reference value :  1.60064e-05
 Reference value :  1.60083e-05
 Reference value :  1.60102e-05
 Reference value :  1.60125e-05
 Reference value :  1.60268e-05
 Reference value :  1.60720e-05
 Reference value :  1.62501e-05
 Reference value :  1.62501e-05
 Reference value :  1.62502e-05
 Reference value :  1.62503e-05
 Reference value :  1.62505e-05
 Reference value :  1.62515e-05
 Reference value :  1.62524e-05
 Reference value :  1.62538e-05
 Reference value :  1.62550e-05
 Reference value :  1.62564e-05
 Reference value :  1.62612e-05
 Reference value :  1.63057e-05
 Reference value :  1.65000e-05
 Reference value :  1.65001e-05
 Reference value :  1.65002e-05
 Reference value :  1.65006e-05
 Reference value :  1.65015e-05
 Reference value :  1.65024e-05
 Reference value :  1.65035e-05
 Reference value :  1.65047e-05
 Reference value :  1.65059e-05
 Reference value :  1.65074e-05
 Reference value :  1.65090e-05
 Reference value :  1.65110e-05
 Reference value :  1.65257e-05
 Reference value :  1.67501e-05
 Reference value :  1.67502e-05
 Reference value :  1.67502e-05
 Reference value :  1.67503e-05
 Reference value :  1.67508e-05
 Reference value :  1.67516e-05
 Reference value :  1.67526e-05
 Reference value :  1.67540e-05
 Reference value :  1.67560e-05
 Reference value :  1.67585e-05
 Reference value :  1.67775e-05
 Reference value :  1.70000e-05
 Reference value :  1.70015e-05
 Reference value :  1.70060e-05
 Reference value :  1.70111e-05
 Reference value :  1.70205e-05
 Reference value :  1.70253e-05
 Reference value :  1.70287e-05
 Reference value :  1.70314e-05
 Reference value :  1.70338e-05
 Reference value :  1.70372e-05
 Reference value :  1.70400e-05
 Reference value :  1.70470e-05
 Reference value :  1.70591e-05
 Reference value :  1.71029e-05
 Reference value :  1.72239e-05
 Reference value :  1.72501e-05
 Reference value :  1.72502e-05
 Reference value :  1.72503e-05
 Reference value :  1.72508e-05
 Reference value :  1.72517e-05
 Reference value :  1.72527e-05
 Reference value :  1.72539e-05
 Reference value :  1.72551e-05
 Reference value :  1.72566e-05
 Reference value :  1.72599e-05
 Reference value :  1.72747e-05
 Reference value :  1.73224e-05
 Reference value :  1.75000e-05
 Reference value :  1.75000e-05
 Reference value :  1.75001e-05
 Reference value :  1.75001e-05
 Reference value :  1.75002e-05
 Reference value :  1.75005e-05
 Reference value :  1.75009e-05
 Reference value :  1.75018e-05
 Reference value :  1.75028e-05
 Reference value :  1.75033e-05
 Reference value :  1.75045e-05
 Reference value :  1.75064e-05
 Reference value :  1.75076e-05
 Reference value :  1.75099e-05
 Reference value :  1.75111e-05
 Reference value :  1.75137e-05
 Reference value :  1.75173e-05
 Reference value :  1.75273e-05
 Reference value :  1.75704e-05
 Reference value :  1.76808e-05
 Reference value :  1.77501e-05
 Reference value :  1.77502e-05
 Reference value :  1.77502e-05
 Reference value :  1.77503e-05
 Reference value :  1.77506e-05
 Reference value :  1.77513e-05
 Reference value :  1.77521e-05
 Reference value :  1.77535e-05
 Reference value :  1.77540e-05
 Reference value :  1.77553e-05
 Reference value :  1.77569e-05
 Reference value :  1.77602e-05
 Reference value :  1.77773e-05
 Reference value :  1.78851e-05
 Reference value :  1.80021e-05
 Reference value :  1.80084e-05
 Reference value :  1.80121e-05
 Reference value :  1.80134e-05
 Reference value :  1.80159e-05
 Reference value :  1.80187e-05
 Reference value :  1.80224e-05
 Reference value :  1.80389e-05
 Reference value :  1.81371e-05
 Reference value :  1.81950e-05
 Reference value :  1.82501e-05
 Reference value :  1.82501e-05
 Reference value :  1.82502e-05
 Reference value :  1.82503e-05
 Reference value :  1.82508e-05
 Reference value :  1.82517e-05
 Reference value :  1.82527e-05
 Reference value :  1.82536e-05
 Reference value :  1.82546e-05
 Reference value :  1.82559e-05
 Reference value :  1.82600e-05
 Reference value :  1.82720e-05
 Reference value :  1.83107e-05
 Reference value :  1.85000e-05
 Reference value :  1.85000e-05
 Reference value :  1.85001e-05
 Reference value :  1.85002e-05
 Reference value :  1.85005e-05
 Reference value :  1.85013e-05
 Reference value :  1.85017e-05
 Reference value :  1.85027e-05
 Reference value :  1.85038e-05
 Reference value :  1.85052e-05
 Reference value :  1.85067e-05
 Reference value :  1.85083e-05
 Reference value :  1.85115e-05
 Reference value :  1.85401e-05
 Reference value :  1.87501e-05
 Reference value :  1.87502e-05
 Reference value :  1.87503e-05
 Reference value :  1.87506e-05
 Reference value :  1.87517e-05
 Reference value :  1.87535e-05
 Reference value :  1.87546e-05
 Reference value :  1.87560e-05
 Reference value :  1.87576e-05
 Reference value :  1.87597e-05
 Reference value :  1.87667e-05
 Reference value :  1.88151e-05
 Reference value :  1.90000e-05
 Reference value :  1.90001e-05
 Reference value :  1.90002e-05
 Reference value :  1.90009e-05
 Reference value :  1.90023e-05
 Reference value :  1.90033e-05
 Reference value :  1.90046e-05
 Reference value :  1.90058e-05
 Reference value :  1.90083e-05
 Reference value :  1.90105e-05
 Reference value :  1.90115e-05
 Reference value :  1.90135e-05
 Reference value :  1.90153e-05
 Reference value :  1.90173e-05
 Reference value :  1.90184e-05
 Reference value :  1.90234e-05
 Reference value :  1.90318e-05
 Reference value :  1.90424e-05
 Reference value :  1.90460e-05
 Reference value :  1.90520e-05
 Reference value :  1.90589e-05
 Reference value :  1.90800e-05
 Reference value :  1.91444e-05
 Reference value :  1.92501e-05
 Reference value :  1.92501e-05
 Reference value :  1.92502e-05
 Reference value :  1.92503e-05
 Reference value :  1.92508e-05
 Reference value :  1.92517e-05
 Reference value :  1.92527e-05
 Reference value :  1.92540e-05
 Reference value :  1.92560e-05
 Reference value :  1.92601e-05
 Reference value :  1.92940e-05
 Reference value :  1.95000e-05
 Reference value :  1.95020e-05
 Reference value :  1.95079e-05
 Reference value :  1.95144e-05
 Reference value :  1.95195e-05
 Reference value :  1.95354e-05
 Reference value :  1.95463e-05
 Reference value :  1.96353e-05
 Reference value :  1.97501e-05
 Reference value :  1.97502e-05
 Reference value :  1.97502e-05
 Reference value :  1.97503e-05
 Reference value :  1.97506e-05
 Reference value :  1.97513e-05
 Reference value :  1.97521e-05
 Reference value :  1.97527e-05
 Reference value :  1.97536e-05
 Reference value :  1.97547e-05
 Reference value :  1.97560e-05
 Reference value :  1.97601e-05
 Reference value :  1.97760e-05
 Reference value :  1.98971e-05
 Reference value :  2.00000e-05
 Reference value :  2.00001e-05
 Reference value :  2.00001e-05
 Reference value :  2.00002e-05
 Reference value :  2.00003e-05
 Reference value :  2.00009e-05
 Reference value :  2.00018e-05
 Reference value :  2.00028e-05
 Reference value :  2.00033e-05
 Reference value :  2.00045e-05
 Reference value :  2.00059e-05
 Reference value :  2.00075e-05
 Reference value :  2.00101e-05
 Reference value :  2.00115e-05
 Reference value :  2.00128e-05
 Reference value :  2.00138e-05
 Reference value :  2.00158e-05
 Reference value :  2.00179e-05
 Reference value :  2.00206e-05
 Reference value :  2.00252e-05
 Reference value :  2.00534e-05
 Reference value :  2.01154e-05
 Reference value :  2.02501e-05
 Reference value :  2.02501e-05
 Reference value :  2.02502e-05
 Reference value :  2.02502e-05
 Reference value :  2.02503e-05
 Reference value :  2.02508e-05
 Reference value :  2.02517e-05
 Reference value :  2.02527e-05
 Reference value :  2.02540e-05
 Reference value :  2.02553e-05
 Reference value :  2.02560e-05
 Reference value :  2.02583e-05
 Reference value :  2.02676e-05
 Reference value :  2.02942e-05
 Reference value :  2.05000e-05
 Reference value :  2.05020e-05
 Reference value :  2.05079e-05
 Reference value :  2.05122e-05
 Reference value :  2.05163e-05
 Reference value :  2.05229e-05
 Reference value :  2.05474e-05
 Reference value :  2.07151e-05
 Reference value :  2.07501e-05
 Reference value :  2.07502e-05
 Reference value :  2.07503e-05
 Reference value :  2.07508e-05
 Reference value :  2.07517e-05
 Reference value :  2.07527e-05
 Reference value :  2.07536e-05
 Reference value :  2.07547e-05
 Reference value :  2.07560e-05
 Reference value :  2.07601e-05
 Reference value :  2.07760e-05
 Reference value :  2.08973e-05
 Reference value :  2.10000e-05
 Reference value :  2.10001e-05
 Reference value :  2.10002e-05
 Reference value :  2.10009e-05
 Reference value :  2.10023e-05
 Reference value :  2.10033e-05
 Reference value :  2.10045e-05
 Reference value :  2.10059e-05
 Reference value :  2.10075e-05
 Reference value :  2.10101e-05
 Reference value :  2.10129e-05
 Reference value :  2.10139e-05
 Reference value :  2.10161e-05
 Reference value :  2.10182e-05
 Reference value :  2.10230e-05
 Reference value :  2.10367e-05
 Reference value :  2.10436e-05
 Reference value :  2.10559e-05
 Reference value :  2.10675e-05
 Reference value :  2.10806e-05
 Reference value :  2.10969e-05
 Reference value :  2.11295e-05
 Reference value :  2.11652e-05
 Reference value :  2.11749e-05
 Reference value :  2.11938e-05
 Reference value :  2.12276e-05
 Reference value :  2.12501e-05
 Reference value :  2.12502e-05
 Reference value :  2.12503e-05
 Reference value :  2.12507e-05
 Reference value :  2.12519e-05
 Reference value :  2.12531e-05
 Reference value :  2.12544e-05
 Reference value :  2.12556e-05
 Reference value :  2.12574e-05
 Reference value :  2.12650e-05
 Reference value :  2.13119e-05
 Reference value :  2.15000e-05
 Reference value :  2.15001e-05
 Reference value :  2.15002e-05
 Reference value :  2.15006e-05
 Reference value :  2.15015e-05
 Reference value :  2.15024e-05
 Reference value :  2.15035e-05
 Reference value :  2.15049e-05
 Reference value :  2.15064e-05
 Reference value :  2.15083e-05
 Reference value :  2.15102e-05
 Reference value :  2.15113e-05
 Reference value :  2.15190e-05
 Reference value :  2.15714e-05
 Reference value :  2.17501e-05
 Reference value :  2.17502e-05
 Reference value :  2.17502e-05
 Reference value :  2.17503e-05
 Reference value :  2.17504e-05
 Reference value :  2.17507e-05
 Reference value :  2.17515e-05
 Reference value :  2.17524e-05
 Reference value :  2.17538e-05
 Reference value :  2.17544e-05
 Reference value :  2.17564e-05
 Reference value :  2.17612e-05
 Reference value :  2.17830e-05
 Reference value :  2.19419e-05
 Reference value :  2.20011e-05
 Reference value :  2.20043e-05
 Reference value :  2.20063e-05
 Reference value :  2.20080e-05
 Reference value :  2.20106e-05
 Reference value :  2.20120e-05
 Reference value :  2.20145e-05
 Reference value :  2.20166e-05
 Reference value :  2.20188e-05
 Reference value :  2.20217e-05
 Reference value :  2.20304e-05
 Reference value :  2.20413e-05
 Reference value :  2.20454e-05
 Reference value :  2.20542e-05
 Reference value :  2.20643e-05
 Reference value :  2.20844e-05
 Reference value :  2.21171e-05
 Reference value :  2.22501e-05
 Reference value :  2.22501e-05
 Reference value :  2.22502e-05
 Reference value :  2.22503e-05
 Reference value :  2.22504e-05
 Reference value :  2.22507e-05
 Reference value :  2.22512e-05
 Reference value :  2.22515e-05
 Reference value :  2.22524e-05
 Reference value :  2.22537e-05
 Reference value :  2.22548e-05
 Reference value :  2.22561e-05
 Reference value :  2.22604e-05
 Reference value :  2.22775e-05
 Reference value :  2.24699e-05
 Reference value :  2.25000e-05
 Reference value :  2.25001e-05
 Reference value :  2.25003e-05
 Reference value :  2.25015e-05
 Reference value :  2.25024e-05
 Reference value :  2.25035e-05
 Reference value :  2.25047e-05
 Reference value :  2.25065e-05
 Reference value :  2.25084e-05
 Reference value :  2.25103e-05
 Reference value :  2.25126e-05
 Reference value :  2.25255e-05
 Reference value :  2.26859e-05
 Reference value :  2.27501e-05
 Reference value :  2.27502e-05
 Reference value :  2.27503e-05
 Reference value :  2.27505e-05
 Reference value :  2.27515e-05
 Reference value :  2.27524e-05
 Reference value :  2.27538e-05
 Reference value :  2.27544e-05
 Reference value :  2.27557e-05
 Reference value :  2.27564e-05
 Reference value :  2.27581e-05
 Reference value :  2.27603e-05
 Reference value :  2.27641e-05
 Reference value :  2.27729e-05
 Reference value :  2.28163e-05
 Reference value :  2.29205e-05
 Reference value :  2.30000e-05
 Reference value :  2.30013e-05
 Reference value :  2.30039e-05
 Reference value :  2.30052e-05
 Reference value :  2.30078e-05
 Reference value :  2.30103e-05
 Reference value :  2.30124e-05
 Reference value :  2.30144e-05
 Reference value :  2.30163e-05
 Reference value :  2.30195e-05
 Reference value :  2.30228e-05
 Reference value :  2.30262e-05
 Reference value :  2.30298e-05
 Reference value :  2.30413e-05
 Reference value :  2.31115e-05
 Reference value :  2.32501e-05
 Reference value :  2.32502e-05
 Reference value :  2.32503e-05
 Reference value :  2.32504e-05
 Reference value :  2.32507e-05
 Reference value :  2.32511e-05
 Reference value :  2.32519e-05
 Reference value :  2.32537e-05
 Reference value :  2.32549e-05
 Reference value :  2.32563e-05
 Reference value :  2.32608e-05
 Reference value :  2.32796e-05
 Reference value :  2.33787e-05
 Reference value :  2.35000e-05
 Reference value :  2.35000e-05
 Reference value :  2.35001e-05
 Reference value :  2.35002e-05
 Reference value :  2.35003e-05
 Reference value :  2.35009e-05
 Reference value :  2.35020e-05
 Reference value :  2.35024e-05
 Reference value :  2.35035e-05
 Reference value :  2.35049e-05
 Reference value :  2.35064e-05
 Reference value :  2.35083e-05
 Reference value :  2.35102e-05
 Reference value :  2.35112e-05
 Reference value :  2.35190e-05
 Reference value :  2.35426e-05
 Reference value :  2.36331e-05
 Reference value :  2.37501e-05
 Reference value :  2.37502e-05
 Reference value :  2.37502e-05
 Reference value :  2.37503e-05
 Reference value :  2.37504e-05
 Reference value :  2.37507e-05
 Reference value :  2.37515e-05
 Reference value :  2.37524e-05
 Reference value :  2.37538e-05
 Reference value :  2.37550e-05
 Reference value :  2.37564e-05
 Reference value :  2.37612e-05
 Reference value :  2.38053e-05
 Reference value :  2.40000e-05
 Reference value :  2.40001e-05
 Reference value :  2.40002e-05
 Reference value :  2.40009e-05
 Reference value :  2.40024e-05
 Reference value :  2.40035e-05
 Reference value :  2.40047e-05
 Reference value :  2.40066e-05
 Reference value :  2.40105e-05
 Reference value :  2.40119e-05
 Reference value :  2.40144e-05
 Reference value :  2.40164e-05
 Reference value :  2.40188e-05
 Reference value :  2.40250e-05
 Reference value :  2.40397e-05
 Reference value :  2.40612e-05
 Reference value :  2.41256e-05
 Reference value :  2.42501e-05
 Reference value :  2.42501e-05
 Reference value :  2.42502e-05
 Reference value :  2.42502e-05
 Reference value :  2.42503e-05
 Reference value :  2.42505e-05
 Reference value :  2.42510e-05
 Reference value :  2.42519e-05
 Reference value :  2.42531e-05
 Reference value :  2.42543e-05
 Reference value :  2.42564e-05
 Reference value :  2.42610e-05
 Reference value :  2.42819e-05
 Reference value :  2.44226e-05
 Reference value :  2.45000e-05
 Reference value :  2.45001e-05
 Reference value :  2.45002e-05
 Reference value :  2.45009e-05
 Reference value :  2.45020e-05
 Reference value :  2.45030e-05
 Reference value :  2.45041e-05
 Reference value :  2.45057e-05
 Reference value :  2.45073e-05
 Reference value :  2.45093e-05
 Reference value :  2.45112e-05
 Reference value :  2.45189e-05
 Reference value :  2.45724e-05
 Reference value :  2.47501e-05
 Reference value :  2.47502e-05
 Reference value :  2.47503e-05
 Reference value :  2.47504e-05
 Reference value :  2.47507e-05
 Reference value :  2.47515e-05
 Reference value :  2.47531e-05
 Reference value :  2.47544e-05
 Reference value :  2.47557e-05
 Reference value :  2.47564e-05
 Reference value :  2.47589e-05
 Reference value :  2.47829e-05
 Reference value :  2.50000e-05
 Reference value :  2.50000e-05
 Reference value :  2.50001e-05
 Reference value :  2.50002e-05
 Reference value :  2.50009e-05
 Reference value :  2.50024e-05
 Reference value :  2.50035e-05
 Reference value :  2.50047e-05
 Reference value :  2.50059e-05
 Reference value :  2.50074e-05
 Reference value :  2.50090e-05
 Reference value :  2.50110e-05
 Reference value :  2.50425e-05
 Reference value :  2.52501e-05
 Reference value :  2.52501e-05
 Reference value :  2.52502e-05
 Reference value :  2.52503e-05
 Reference value :  2.52508e-05
 Reference value :  2.52520e-05
 Reference value :  2.52533e-05
 Reference value :  2.52550e-05
 Reference value :  2.52569e-05
 Reference value :  2.52602e-05
 Reference value :  2.52967e-05
 Reference value :  2.55000e-05
 Reference value :  2.55015e-05
 Reference value :  2.55060e-05
 Reference value :  2.55111e-05
 Reference value :  2.55205e-05
 Reference value :  2.55253e-05
 Reference value :  2.55287e-05
 Reference value :  2.55314e-05
 Reference value :  2.55338e-05
 Reference value :  2.55372e-05
 Reference value :  2.55400e-05
 Reference value :  2.55470e-05
 Reference value :  2.55591e-05
 Reference value :  2.56029e-05
 Reference value :  2.57501e-05
 Reference value :  2.57502e-05
 Reference value :  2.57502e-05
 Reference value :  2.57504e-05
 Reference value :  2.57508e-05
 Reference value :  2.57517e-05
 Reference value :  2.57527e-05
 Reference value :  2.57534e-05
 Reference value :  2.57539e-05
 Reference value :  2.57551e-05
 Reference value :  2.57559e-05
 Reference value :  2.57582e-05
 Reference value :  2.57667e-05
 Reference value :  2.58222e-05
 Reference value :  2.60000e-05
 Reference value :  2.60001e-05
 Reference value :  2.60001e-05
 Reference value :  2.60002e-05
 Reference value :  2.60005e-05
 Reference value :  2.60013e-05
 Reference value :  2.60028e-05
 Reference value :  2.60039e-05
 Reference value :  2.60064e-05
 Reference value :  2.60075e-05
 Reference value :  2.60099e-05
 Reference value :  2.60111e-05
 Reference value :  2.60137e-05
 Reference value :  2.60173e-05
 Reference value :  2.60274e-05
 Reference value :  2.60483e-05
 Reference value :  2.61125e-05
 Reference value :  2.62501e-05
 Reference value :  2.62502e-05
 Reference value :  2.62503e-05
 Reference value :  2.62506e-05
 Reference value :  2.62513e-05
 Reference value :  2.62521e-05
 Reference value :  2.62535e-05
 Reference value :  2.62546e-05
 Reference value :  2.62560e-05
 Reference value :  2.62580e-05
 Reference value :  2.62677e-05
 Reference value :  2.63228e-05
 Reference value :  2.65021e-05
 Reference value :  2.65063e-05
 Reference value :  2.65084e-05
 Reference value :  2.65105e-05
 Reference value :  2.65122e-05
 Reference value :  2.65136e-05
 Reference value :  2.65161e-05
 Reference value :  2.65189e-05
 Reference value :  2.65255e-05
 Reference value :  2.65502e-05
 Reference value :  2.66154e-05
 Reference value :  2.66829e-05
 Reference value :  2.67425e-05
 Reference value :  2.67501e-05
 Reference value :  2.67502e-05
 Reference value :  2.67502e-05
 Reference value :  2.67503e-05
 Reference value :  2.67504e-05
 Reference value :  2.67508e-05
 Reference value :  2.67517e-05
 Reference value :  2.67526e-05
 Reference value :  2.67536e-05
 Reference value :  2.67546e-05
 Reference value :  2.67559e-05
 Reference value :  2.67600e-05
 Reference value :  2.67741e-05
 Reference value :  2.68554e-05
 Reference value :  2.70000e-05
 Reference value :  2.70001e-05
 Reference value :  2.70002e-05
 Reference value :  2.70009e-05
 Reference value :  2.70017e-05
 Reference value :  2.70027e-05
 Reference value :  2.70032e-05
 Reference value :  2.70044e-05
 Reference value :  2.70060e-05
 Reference value :  2.70067e-05
 Reference value :  2.70083e-05
 Reference value :  2.70103e-05
 Reference value :  2.70177e-05
 Reference value :  2.71354e-05
 Reference value :  2.72501e-05
 Reference value :  2.72502e-05
 Reference value :  2.72503e-05
 Reference value :  2.72508e-05
 Reference value :  2.72521e-05
 Reference value :  2.72535e-05
 Reference value :  2.72546e-05
 Reference value :  2.72560e-05
 Reference value :  2.72576e-05
 Reference value :  2.72616e-05
 Reference value :  2.72722e-05
 Reference value :  2.73163e-05
 Reference value :  2.75000e-05
 Reference value :  2.75001e-05
 Reference value :  2.75002e-05
 Reference value :  2.75005e-05
 Reference value :  2.75018e-05
 Reference value :  2.75033e-05
 Reference value :  2.75052e-05
 Reference value :  2.75058e-05
 Reference value :  2.75073e-05
 Reference value :  2.75094e-05
 Reference value :  2.75115e-05
 Reference value :  2.75135e-05
 Reference value :  2.75153e-05
 Reference value :  2.75173e-05
 Reference value :  2.75196e-05
 Reference value :  2.75318e-05
 Reference value :  2.75425e-05
 Reference value :  2.75460e-05
 Reference value :  2.75520e-05
 Reference value :  2.75636e-05
 Reference value :  2.76126e-05
 Reference value :  2.77501e-05
 Reference value :  2.77502e-05
 Reference value :  2.77502e-05
 Reference value :  2.77504e-05
 Reference value :  2.77513e-05
 Reference value :  2.77521e-05
 Reference value :  2.77535e-05
 Reference value :  2.77546e-05
 Reference value :  2.77560e-05
 Reference value :  2.77601e-05
 Reference value :  2.77940e-05
 Reference value :  2.80000e-05
 Reference value :  2.80020e-05
 Reference value :  2.80059e-05
 Reference value :  2.80079e-05
 Reference value :  2.80122e-05
 Reference value :  2.80195e-05
 Reference value :  2.80354e-05
 Reference value :  2.80641e-05
 Reference value :  2.81353e-05
 Reference value :  2.82501e-05
 Reference value :  2.82501e-05
 Reference value :  2.82502e-05
 Reference value :  2.82502e-05
 Reference value :  2.82503e-05
 Reference value :  2.82508e-05
 Reference value :  2.82521e-05
 Reference value :  2.82532e-05
 Reference value :  2.82536e-05
 Reference value :  2.82547e-05
 Reference value :  2.82560e-05
 Reference value :  2.82601e-05
 Reference value :  2.82760e-05
 Reference value :  2.83971e-05
 Reference value :  2.85000e-05
 Reference value :  2.85001e-05
 Reference value :  2.85001e-05
 Reference value :  2.85002e-05
 Reference value :  2.85005e-05
 Reference value :  2.85013e-05
 Reference value :  2.85023e-05
 Reference value :  2.85033e-05
 Reference value :  2.85039e-05
 Reference value :  2.85052e-05
 Reference value :  2.85059e-05
 Reference value :  2.85075e-05
 Reference value :  2.85101e-05
 Reference value :  2.85128e-05
 Reference value :  2.85138e-05
 Reference value :  2.85158e-05
 Reference value :  2.85168e-05
 Reference value :  2.85191e-05
 Reference value :  2.85252e-05
 Reference value :  2.85534e-05
 Reference value :  2.86154e-05
 Reference value :  2.87501e-05
 Reference value :  2.87501e-05
 Reference value :  2.87502e-05
 Reference value :  2.87502e-05
 Reference value :  2.87503e-05
 Reference value :  2.87506e-05
 Reference value :  2.87513e-05
 Reference value :  2.87521e-05
 Reference value :  2.87535e-05
 Reference value :  2.87540e-05
 Reference value :  2.87553e-05
 Reference value :  2.87560e-05
 Reference value :  2.87583e-05
 Reference value :  2.87676e-05
 Reference value :  2.88928e-05
 Reference value :  2.90020e-05
 Reference value :  2.90059e-05
 Reference value :  2.90079e-05
 Reference value :  2.90122e-05
 Reference value :  2.90195e-05
 Reference value :  2.90360e-05
 Reference value :  2.90945e-05
 Reference value :  2.92501e-05
 Reference value :  2.92502e-05
 Reference value :  2.92502e-05
 Reference value :  2.92503e-05
 Reference value :  2.92504e-05
 Reference value :  2.92508e-05
 Reference value :  2.92517e-05
 Reference value :  2.92527e-05
 Reference value :  2.92536e-05
 Reference value :  2.92547e-05
 Reference value :  2.92560e-05
 Reference value :  2.92601e-05
 Reference value :  2.92933e-05
 Reference value :  2.95000e-05
 Reference value :  2.95001e-05
 Reference value :  2.95001e-05
 Reference value :  2.95003e-05
 Reference value :  2.95009e-05
 Reference value :  2.95018e-05
 Reference value :  2.95028e-05
 Reference value :  2.95033e-05
 Reference value :  2.95045e-05
 Reference value :  2.95059e-05
 Reference value :  2.95085e-05
 Reference value :  2.95101e-05
 Reference value :  2.95129e-05
 Reference value :  2.95149e-05
 Reference value :  2.95171e-05
 Reference value :  2.95213e-05
 Reference value :  2.95318e-05
 Reference value :  2.95436e-05
 Reference value :  2.95559e-05
 Reference value :  2.95675e-05
 Reference value :  2.95969e-05
 Reference value :  2.96295e-05
 Reference value :  2.96652e-05
 Reference value :  2.96749e-05
 Reference value :  2.97066e-05
 Reference value :  2.97501e-05
 Reference value :  2.97502e-05
 Reference value :  2.97503e-05
 Reference value :  2.97505e-05
 Reference value :  2.97515e-05
 Reference value :  2.97524e-05
 Reference value :  2.97538e-05
 Reference value :  2.97550e-05
 Reference value :  2.97574e-05
 Reference value :  2.97717e-05
 Reference value :  2.98654e-05
 Reference value :  3.00000e-05
 Reference value :  3.00001e-05
 Reference value :  3.00003e-05
 Reference value :  3.00009e-05
 Reference value :  3.00024e-05
 Reference value :  3.00035e-05
 Reference value :  3.00049e-05
 Reference value :  3.00064e-05
 Reference value :  3.00083e-05
 Reference value :  3.00113e-05
 Reference value :  3.00267e-05
 Reference value :  3.02465e-05
 Reference value :  3.02501e-05
 Reference value :  3.02502e-05
 Reference value :  3.02503e-05
 Reference value :  3.02505e-05
 Reference value :  3.02515e-05
 Reference value :  3.02524e-05
 Reference value :  3.02538e-05
 Reference value :  3.02550e-05
 Reference value :  3.02564e-05
 Reference value :  3.02612e-05
 Reference value :  3.03057e-05
 Reference value :  3.05000e-05
 Reference value :  3.05011e-05
 Reference value :  3.05043e-05
 Reference value :  3.05063e-05
 Reference value :  3.05080e-05
 Reference value :  3.05120e-05
 Reference value :  3.05145e-05
 Reference value :  3.05166e-05
 Reference value :  3.05187e-05
 Reference value :  3.05217e-05
 Reference value :  3.05266e-05
 Reference value :  3.05354e-05
 Reference value :  3.05410e-05
 Reference value :  3.05451e-05
 Reference value :  3.05539e-05
 Reference value :  3.05640e-05
 Reference value :  3.05837e-05
 Reference value :  3.06492e-05
 Reference value :  3.07501e-05
 Reference value :  3.07501e-05
 Reference value :  3.07502e-05
 Reference value :  3.07502e-05
 Reference value :  3.07503e-05
 Reference value :  3.07504e-05
 Reference value :  3.07505e-05
 Reference value :  3.07509e-05
 Reference value :  3.07512e-05
 Reference value :  3.07515e-05
 Reference value :  3.07524e-05
 Reference value :  3.07537e-05
 Reference value :  3.07542e-05
 Reference value :  3.07554e-05
 Reference value :  3.07561e-05
 Reference value :  3.07584e-05
 Reference value :  3.07775e-05
 Reference value :  3.08732e-05
 Reference value :  3.10000e-05
 Reference value :  3.10001e-05
 Reference value :  3.10001e-05
 Reference value :  3.10002e-05
 Reference value :  3.10006e-05
 Reference value :  3.10015e-05
 Reference value :  3.10024e-05
 Reference value :  3.10035e-05
 Reference value :  3.10041e-05
 Reference value :  3.10056e-05
 Reference value :  3.10074e-05
 Reference value :  3.10093e-05
 Reference value :  3.10114e-05
 Reference value :  3.10187e-05
 Reference value :  3.10588e-05
 Reference value :  3.12501e-05
 Reference value :  3.12502e-05
 Reference value :  3.12502e-05
 Reference value :  3.12504e-05
 Reference value :  3.12510e-05
 Reference value :  3.12519e-05
 Reference value :  3.12531e-05
 Reference value :  3.12544e-05
 Reference value :  3.12557e-05
 Reference value :  3.12564e-05
 Reference value :  3.12590e-05
 Reference value :  3.12641e-05
 Reference value :  3.12809e-05
 Reference value :  3.13510e-05
 Reference value :  3.15000e-05
 Reference value :  3.15001e-05
 Reference value :  3.15002e-05
 Reference value :  3.15006e-05
 Reference value :  3.15015e-05
 Reference value :  3.15024e-05
 Reference value :  3.15035e-05
 Reference value :  3.15046e-05
 Reference value :  3.15058e-05
 Reference value :  3.15082e-05
 Reference value :  3.15107e-05
 Reference value :  3.15129e-05
 Reference value :  3.15145e-05
 Reference value :  3.15165e-05
 Reference value :  3.15200e-05
 Reference value :  3.15238e-05
 Reference value :  3.15270e-05
 Reference value :  3.15340e-05
 Reference value :  3.15782e-05
 Reference value :  3.17501e-05
 Reference value :  3.17502e-05
 Reference value :  3.17502e-05
 Reference value :  3.17504e-05
 Reference value :  3.17510e-05
 Reference value :  3.17519e-05
 Reference value :  3.17531e-05
 Reference value :  3.17543e-05
 Reference value :  3.17563e-05
 Reference value :  3.17609e-05
 Reference value :  3.18009e-05
 Reference value :  3.20000e-05
 Reference value :  3.20001e-05
 Reference value :  3.20002e-05
 Reference value :  3.20009e-05
 Reference value :  3.20020e-05
 Reference value :  3.20030e-05
 Reference value :  3.20041e-05
 Reference value :  3.20057e-05
 Reference value :  3.20064e-05
 Reference value :  3.20083e-05
 Reference value :  3.20102e-05
 Reference value :  3.20124e-05
 Reference value :  3.20269e-05
 Reference value :  3.21349e-05
 Reference value :  3.22501e-05
 Reference value :  3.22502e-05
 Reference value :  3.22504e-05
 Reference value :  3.22510e-05
 Reference value :  3.22524e-05
 Reference value :  3.22538e-05
 Reference value :  3.22550e-05
 Reference value :  3.22564e-05
 Reference value :  3.22612e-05
 Reference value :  3.22830e-05
 Reference value :  3.24402e-05
 Reference value :  3.25000e-05
 Reference value :  3.25001e-05
 Reference value :  3.25001e-05
 Reference value :  3.25002e-05
 Reference value :  3.25003e-05
 Reference value :  3.25009e-05
 Reference value :  3.25020e-05
 Reference value :  3.25024e-05
 Reference value :  3.25035e-05
 Reference value :  3.25047e-05
 Reference value :  3.25059e-05
 Reference value :  3.25074e-05
 Reference value :  3.25105e-05
 Reference value :  3.25119e-05
 Reference value :  3.25144e-05
 Reference value :  3.25164e-05
 Reference value :  3.25188e-05
 Reference value :  3.25250e-05
 Reference value :  3.25327e-05
 Reference value :  3.25612e-05
 Reference value :  3.25946e-05
 Reference value :  3.26649e-05
 Reference value :  3.27501e-05
 Reference value :  3.27502e-05
 Reference value :  3.27503e-05
 Reference value :  3.27505e-05
 Reference value :  3.27510e-05
 Reference value :  3.27519e-05
 Reference value :  3.27531e-05
 Reference value :  3.27543e-05
 Reference value :  3.27556e-05
 Reference value :  3.27572e-05
 Reference value :  3.27643e-05
 Reference value :  3.28018e-05
 Reference value :  3.30000e-05
 Reference value :  3.30000e-05
 Reference value :  3.30001e-05
 Reference value :  3.30001e-05
 Reference value :  3.30002e-05
 Reference value :  3.30006e-05
 Reference value :  3.30015e-05
 Reference value :  3.30024e-05
 Reference value :  3.30035e-05
 Reference value :  3.30049e-05
 Reference value :  3.30064e-05
 Reference value :  3.30083e-05
 Reference value :  3.30102e-05
 Reference value :  3.30112e-05
 Reference value :  3.30189e-05
 Reference value :  3.30724e-05
 Reference value :  3.32501e-05
 Reference value :  3.32502e-05
 Reference value :  3.32502e-05
 Reference value :  3.32503e-05
 Reference value :  3.32505e-05
 Reference value :  3.32510e-05
 Reference value :  3.32519e-05
 Reference value :  3.32531e-05
 Reference value :  3.32544e-05
 Reference value :  3.32557e-05
 Reference value :  3.32564e-05
 Reference value :  3.32589e-05
 Reference value :  3.32645e-05
 Reference value :  3.32829e-05
 Reference value :  3.33501e-05
 Reference value :  3.35010e-05
 Reference value :  3.35031e-05
 Reference value :  3.35041e-05
 Reference value :  3.35051e-05
 Reference value :  3.35060e-05
 Reference value :  3.35078e-05
 Reference value :  3.35087e-05
 Reference value :  3.35096e-05
 Reference value :  3.35107e-05
 Reference value :  3.35141e-05
 Reference value :  3.35253e-05
 Reference value :  3.35655e-05
 Reference value :  3.37099e-05
 Reference value :  3.37501e-05
 Reference value :  3.37501e-05
 Reference value :  3.37502e-05
 Reference value :  3.37502e-05
 Reference value :  3.37503e-05
 Reference value :  3.37504e-05
 Reference value :  3.37508e-05
 Reference value :  3.37514e-05
 Reference value :  3.37518e-05
 Reference value :  3.37523e-05
 Reference value :  3.37529e-05
 Reference value :  3.37537e-05
 Reference value :  3.37545e-05
 Reference value :  3.37554e-05
 Reference value :  3.37575e-05
 Reference value :  3.37612e-05
 Reference value :  3.37695e-05
 Reference value :  3.38084e-05
 Reference value :  3.40000e-05
No. of Data Rows : 4675
ngspice-44 done
