
Note: Compatibility modes selected: hs a


Circuit: ** sch_path: /home/ece/cace/sar-adc-using-sky130-pdk/runs/run_2025-09-12_05-02-47/parameters/dnl/run_0/sar_output_dnl.sch

option SCALE: Scale is set to 1e-06 for instance and model parameters
option SCALE: Scale is set to 1e-06 for instance and model parameters
option SCALE: Scale is set to 1e-06 for instance and model parameters
option SCALE: Scale is set to 1e-06 for instance and model parameters
Doing analysis at TEMP = 27.000000 and TNOM = 27.000000

Using KLU as Direct Linear Solver
Operating point simulation skipped by 'uic',
  now using transient initial conditions.
 Reference value :  1.00000e-12
 Reference value :  1.02772e-12
 Reference value :  1.08316e-12
 Reference value :  1.19404e-12
 Reference value :  1.33842e-12
 Reference value :  1.62719e-12
 Reference value :  2.20473e-12
 Reference value :  3.04032e-12
 Reference value :  3.94726e-12
 Reference value :  5.17051e-12
 Reference value :  6.92389e-12
 Reference value :  1.02694e-11
 Reference value :  1.42607e-11
 Reference value :  2.10025e-11
 Reference value :  2.78932e-11
 Reference value :  3.69245e-11
 Reference value :  4.84684e-11
 Reference value :  6.49591e-11
 Reference value :  8.65117e-11
 Reference value :  1.00000e-10
 Reference value :  1.01119e-10
 Reference value :  1.03358e-10
 Reference value :  1.07835e-10
 Reference value :  1.16789e-10
 Reference value :  1.34697e-10
 Reference value :  1.70513e-10
 Reference value :  2.42146e-10
 Reference value :  3.85410e-10
 Reference value :  5.43898e-10
 Reference value :  7.95077e-10
 Reference value :  1.13089e-09
 Reference value :  1.52974e-09
 Reference value :  2.14496e-09
 Reference value :  2.78919e-09
 Reference value :  3.81715e-09
 Reference value :  4.75213e-09
 Reference value :  5.60389e-09
 Reference value :  6.54775e-09
 Reference value :  7.56638e-09
 Reference value :  8.91960e-09
 Reference value :  9.86992e-09
 Reference value :  1.07867e-08
 Reference value :  1.17024e-08
 Reference value :  1.26567e-08
 Reference value :  1.42986e-08
 Reference value :  1.65265e-08
 Reference value :  2.03787e-08
 Reference value :  2.49076e-08
 Reference value :  2.96950e-08
 Reference value :  3.36218e-08
 Reference value :  3.79436e-08
 Reference value :  4.22276e-08
 Reference value :  4.66822e-08
 Reference value :  5.26435e-08
 Reference value :  6.12501e-08
 Reference value :  7.60249e-08
 Reference value :  1.01507e-07
 Reference value :  1.49165e-07
 Reference value :  2.18763e-07
 Reference value :  2.50100e-07
 Reference value :  2.50110e-07
 Reference value :  2.50130e-07
 Reference value :  2.50170e-07
 Reference value :  2.50200e-07
 Reference value :  2.50201e-07
 Reference value :  2.50202e-07
 Reference value :  2.50204e-07
 Reference value :  2.50208e-07
 Reference value :  2.50216e-07
 Reference value :  2.50233e-07
 Reference value :  2.50266e-07
 Reference value :  2.50332e-07
 Reference value :  2.50438e-07
 Reference value :  2.50611e-07
 Reference value :  2.50808e-07
 Reference value :  2.51136e-07
 Reference value :  2.51583e-07
 Reference value :  2.52133e-07
 Reference value :  2.52731e-07
 Reference value :  2.53379e-07
 Reference value :  2.54229e-07
 Reference value :  2.55158e-07
 Reference value :  2.56089e-07
 Reference value :  2.56989e-07
 Reference value :  2.57972e-07
 Reference value :  2.58946e-07
 Reference value :  2.60499e-07
 Reference value :  2.62419e-07
 Reference value :  2.64909e-07
 Reference value :  2.68768e-07
 Reference value :  2.73509e-07
 Reference value :  2.82991e-07
 Reference value :  3.00570e-07
 Reference value :  3.29465e-07
 Reference value :  3.86686e-07
 Reference value :  5.00000e-07
 Reference value :  5.00010e-07
 Reference value :  5.00030e-07
 Reference value :  5.00070e-07
 Reference value :  5.00100e-07
 Reference value :  5.00104e-07
 Reference value :  5.00113e-07
 Reference value :  5.00130e-07
 Reference value :  5.00165e-07
 Reference value :  5.00234e-07
 Reference value :  5.00372e-07
 Reference value :  5.00573e-07
 Reference value :  5.00954e-07
 Reference value :  5.01538e-07
 Reference value :  5.02096e-07
 Reference value :  5.02766e-07
 Reference value :  5.03533e-07
 Reference value :  5.04331e-07
 Reference value :  5.05155e-07
 Reference value :  5.05969e-07
 Reference value :  5.07062e-07
 Reference value :  5.08130e-07
 Reference value :  5.09940e-07
 Reference value :  5.12181e-07
 Reference value :  5.14397e-07
 Reference value :  5.16701e-07
 Reference value :  5.18870e-07
 Reference value :  5.21551e-07
 Reference value :  5.24224e-07
 Reference value :  5.29329e-07
 Reference value :  5.35742e-07
 Reference value :  5.46810e-07
 Reference value :  5.66365e-07
 Reference value :  5.96607e-07
 Reference value :  6.57089e-07
 Reference value :  7.50100e-07
 Reference value :  7.50110e-07
 Reference value :  7.50130e-07
 Reference value :  7.50170e-07
 Reference value :  7.50200e-07
 Reference value :  7.50201e-07
 Reference value :  7.50202e-07
 Reference value :  7.50205e-07
 Reference value :  7.50211e-07
 Reference value :  7.50223e-07
 Reference value :  7.50247e-07
 Reference value :  7.50295e-07
 Reference value :  7.50390e-07
 Reference value :  7.50581e-07
 Reference value :  7.50959e-07
 Reference value :  7.51572e-07
 Reference value :  7.52191e-07
 Reference value :  7.52840e-07
 Reference value :  7.53541e-07
 Reference value :  7.54448e-07
 Reference value :  7.55180e-07
 Reference value :  7.56013e-07
 Reference value :  7.56742e-07
 Reference value :  7.57547e-07
 Reference value :  7.58563e-07
 Reference value :  7.59653e-07
 Reference value :  7.61835e-07
 Reference value :  7.64160e-07
 Reference value :  7.68223e-07
 Reference value :  7.72598e-07
 Reference value :  7.81348e-07
 Reference value :  7.98847e-07
 Reference value :  8.31747e-07
 Reference value :  8.97549e-07
 Reference value :  1.00000e-06
 Reference value :  1.00001e-06
 Reference value :  1.00003e-06
 Reference value :  1.00007e-06
 Reference value :  1.00010e-06
 Reference value :  1.00010e-06
 Reference value :  1.00011e-06
 Reference value :  1.00013e-06
 Reference value :  1.00016e-06
 Reference value :  1.00023e-06
 Reference value :  1.00037e-06
 Reference value :  1.00057e-06
 Reference value :  1.00095e-06
 Reference value :  1.00154e-06
 Reference value :  1.00209e-06
 Reference value :  1.00276e-06
 Reference value :  1.00353e-06
 Reference value :  1.00440e-06
 Reference value :  1.00519e-06
 Reference value :  1.00606e-06
 Reference value :  1.00684e-06
 Reference value :  1.00759e-06
 Reference value :  1.00846e-06
 Reference value :  1.00938e-06
 Reference value :  1.01056e-06
 Reference value :  1.01241e-06
 Reference value :  1.01476e-06
 Reference value :  1.01829e-06
 Reference value :  1.02070e-06
 Reference value :  1.02282e-06
 Reference value :  1.02485e-06
 Reference value :  1.02663e-06
 Reference value :  1.02849e-06
 Reference value :  1.03079e-06
 Reference value :  1.03330e-06
 Reference value :  1.03634e-06
 Reference value :  1.04062e-06
 Reference value :  1.04637e-06
 Reference value :  1.05499e-06
 Reference value :  1.06787e-06
 Reference value :  1.08748e-06
 Reference value :  1.11813e-06
 Reference value :  1.16564e-06
 Reference value :  1.23667e-06
 Reference value :  1.25010e-06
 Reference value :  1.25011e-06
 Reference value :  1.25013e-06
 Reference value :  1.25017e-06
 Reference value :  1.25020e-06
 Reference value :  1.25020e-06
 Reference value :  1.25020e-06
 Reference value :  1.25021e-06
 Reference value :  1.25021e-06
 Reference value :  1.25022e-06
 Reference value :  1.25025e-06
 Reference value :  1.25029e-06
 Reference value :  1.25039e-06
 Reference value :  1.25057e-06
 Reference value :  1.25090e-06
 Reference value :  1.25154e-06
 Reference value :  1.25213e-06
 Reference value :  1.25276e-06
 Reference value :  1.25347e-06
 Reference value :  1.25438e-06
 Reference value :  1.25516e-06
 Reference value :  1.25603e-06
 Reference value :  1.25690e-06
 Reference value :  1.25782e-06
 Reference value :  1.25903e-06
 Reference value :  1.26096e-06
 Reference value :  1.26333e-06
 Reference value :  1.26658e-06
 Reference value :  1.27087e-06
 Reference value :  1.27831e-06
 Reference value :  1.29319e-06
 Reference value :  1.31249e-06
 Reference value :  1.33358e-06
 Reference value :  1.35434e-06
 Reference value :  1.36915e-06
 Reference value :  1.38280e-06
 Reference value :  1.39306e-06
 Reference value :  1.40470e-06
 Reference value :  1.41987e-06
 Reference value :  1.43777e-06
 Reference value :  1.46141e-06
 Reference value :  1.48630e-06
 Reference value :  1.50000e-06
 Reference value :  1.50001e-06
 Reference value :  1.50003e-06
 Reference value :  1.50007e-06
 Reference value :  1.50010e-06
 Reference value :  1.50010e-06
 Reference value :  1.50011e-06
 Reference value :  1.50013e-06
 Reference value :  1.50016e-06
 Reference value :  1.50023e-06
 Reference value :  1.50037e-06
 Reference value :  1.50057e-06
 Reference value :  1.50093e-06
 Reference value :  1.50144e-06
 Reference value :  1.50196e-06
 Reference value :  1.50256e-06
 Reference value :  1.50328e-06
 Reference value :  1.50403e-06
 Reference value :  1.50495e-06
 Reference value :  1.50585e-06
 Reference value :  1.50685e-06
 Reference value :  1.50810e-06
 Reference value :  1.50936e-06
 Reference value :  1.51067e-06
 Reference value :  1.51200e-06
 Reference value :  1.51366e-06
 Reference value :  1.51503e-06
 Reference value :  1.51663e-06
 Reference value :  1.51818e-06
 Reference value :  1.51997e-06
 Reference value :  1.52356e-06
 Reference value :  1.52948e-06
 Reference value :  1.53975e-06
 Reference value :  1.56027e-06
 Reference value :  1.60133e-06
 Reference value :  1.68344e-06
 Reference value :  1.75010e-06
 Reference value :  1.75011e-06
 Reference value :  1.75013e-06
 Reference value :  1.75017e-06
 Reference value :  1.75020e-06
 Reference value :  1.75020e-06
 Reference value :  1.75020e-06
 Reference value :  1.75021e-06
 Reference value :  1.75021e-06
 Reference value :  1.75022e-06
 Reference value :  1.75025e-06
 Reference value :  1.75029e-06
 Reference value :  1.75039e-06
 Reference value :  1.75057e-06
 Reference value :  1.75090e-06
 Reference value :  1.75156e-06
 Reference value :  1.75215e-06
 Reference value :  1.75278e-06
 Reference value :  1.75348e-06
 Reference value :  1.75439e-06
 Reference value :  1.75514e-06
 Reference value :  1.75598e-06
 Reference value :  1.75670e-06
 Reference value :  1.75751e-06
 Reference value :  1.75854e-06
 Reference value :  1.75964e-06
 Reference value :  1.76076e-06
 Reference value :  1.76246e-06
 Reference value :  1.76449e-06
 Reference value :  1.76716e-06
 Reference value :  1.77068e-06
 Reference value :  1.77523e-06
 Reference value :  1.78433e-06
 Reference value :  1.79807e-06
 Reference value :  1.82555e-06
 Reference value :  1.87194e-06
 Reference value :  1.91923e-06
 Reference value :  2.00000e-06
 Reference value :  2.00001e-06
 Reference value :  2.00003e-06
 Reference value :  2.00007e-06
 Reference value :  2.00010e-06
 Reference value :  2.00010e-06
 Reference value :  2.00011e-06
 Reference value :  2.00013e-06
 Reference value :  2.00017e-06
 Reference value :  2.00023e-06
 Reference value :  2.00037e-06
 Reference value :  2.00057e-06
 Reference value :  2.00093e-06
 Reference value :  2.00145e-06
 Reference value :  2.00198e-06
 Reference value :  2.00262e-06
 Reference value :  2.00338e-06
 Reference value :  2.00415e-06
 Reference value :  2.00498e-06
 Reference value :  2.00570e-06
 Reference value :  2.00649e-06
 Reference value :  2.00720e-06
 Reference value :  2.00805e-06
 Reference value :  2.00883e-06
 Reference value :  2.00991e-06
 Reference value :  2.01108e-06
 Reference value :  2.01313e-06
 Reference value :  2.01600e-06
 Reference value :  2.01792e-06
 Reference value :  2.02004e-06
 Reference value :  2.02200e-06
 Reference value :  2.02342e-06
 Reference value :  2.02486e-06
 Reference value :  2.02614e-06
 Reference value :  2.02754e-06
 Reference value :  2.02919e-06
 Reference value :  2.03125e-06
 Reference value :  2.03392e-06
 Reference value :  2.03750e-06
 Reference value :  2.04463e-06
 Reference value :  2.05425e-06
 Reference value :  2.06902e-06
 Reference value :  2.09746e-06
 Reference value :  2.14605e-06
 Reference value :  2.20758e-06
 Reference value :  2.25010e-06
 Reference value :  2.25011e-06
 Reference value :  2.25013e-06
 Reference value :  2.25017e-06
 Reference value :  2.25020e-06
 Reference value :  2.25020e-06
 Reference value :  2.25020e-06
 Reference value :  2.25021e-06
 Reference value :  2.25021e-06
 Reference value :  2.25022e-06
 Reference value :  2.25025e-06
 Reference value :  2.25029e-06
 Reference value :  2.25039e-06
 Reference value :  2.25058e-06
 Reference value :  2.25091e-06
 Reference value :  2.25157e-06
 Reference value :  2.25217e-06
 Reference value :  2.25281e-06
 Reference value :  2.25351e-06
 Reference value :  2.25441e-06
 Reference value :  2.25515e-06
 Reference value :  2.25598e-06
 Reference value :  2.25683e-06
 Reference value :  2.25772e-06
 Reference value :  2.25892e-06
 Reference value :  2.26072e-06
 Reference value :  2.26319e-06
 Reference value :  2.26623e-06
 Reference value :  2.27056e-06
 Reference value :  2.27711e-06
 Reference value :  2.29022e-06
 Reference value :  2.31644e-06
 Reference value :  2.36888e-06
 Reference value :  2.42202e-06
 Reference value :  2.48320e-06
 Reference value :  2.50000e-06
 Reference value :  2.50001e-06
 Reference value :  2.50003e-06
 Reference value :  2.50007e-06
 Reference value :  2.50010e-06
 Reference value :  2.50010e-06
 Reference value :  2.50011e-06
 Reference value :  2.50013e-06
 Reference value :  2.50017e-06
 Reference value :  2.50023e-06
 Reference value :  2.50037e-06
 Reference value :  2.50057e-06
 Reference value :  2.50093e-06
 Reference value :  2.50145e-06
 Reference value :  2.50198e-06
 Reference value :  2.50262e-06
 Reference value :  2.50339e-06
 Reference value :  2.50415e-06
 Reference value :  2.50496e-06
 Reference value :  2.50594e-06
 Reference value :  2.50684e-06
 Reference value :  2.50807e-06
 Reference value :  2.50924e-06
 Reference value :  2.51051e-06
 Reference value :  2.51181e-06
 Reference value :  2.51340e-06
 Reference value :  2.51480e-06
 Reference value :  2.51639e-06
 Reference value :  2.51797e-06
 Reference value :  2.51973e-06
 Reference value :  2.52326e-06
 Reference value :  2.53031e-06
 Reference value :  2.53998e-06
 Reference value :  2.55932e-06
 Reference value :  2.59799e-06
 Reference value :  2.67533e-06
 Reference value :  2.75010e-06
 Reference value :  2.75011e-06
 Reference value :  2.75013e-06
 Reference value :  2.75017e-06
 Reference value :  2.75020e-06
 Reference value :  2.75020e-06
 Reference value :  2.75020e-06
 Reference value :  2.75021e-06
 Reference value :  2.75021e-06
 Reference value :  2.75022e-06
 Reference value :  2.75025e-06
 Reference value :  2.75029e-06
 Reference value :  2.75039e-06
 Reference value :  2.75057e-06
 Reference value :  2.75090e-06
 Reference value :  2.75156e-06
 Reference value :  2.75215e-06
 Reference value :  2.75278e-06
 Reference value :  2.75349e-06
 Reference value :  2.75440e-06
 Reference value :  2.75514e-06
 Reference value :  2.75598e-06
 Reference value :  2.75670e-06
 Reference value :  2.75750e-06
 Reference value :  2.75854e-06
 Reference value :  2.75964e-06
 Reference value :  2.76185e-06
 Reference value :  2.76416e-06
 Reference value :  2.76824e-06
 Reference value :  2.77261e-06
 Reference value :  2.78134e-06
 Reference value :  2.79881e-06
 Reference value :  2.83375e-06
 Reference value :  2.90362e-06
 Reference value :  3.00000e-06
 Reference value :  3.00001e-06
 Reference value :  3.00003e-06
 Reference value :  3.00007e-06
 Reference value :  3.00010e-06
 Reference value :  3.00010e-06
 Reference value :  3.00011e-06
 Reference value :  3.00013e-06
 Reference value :  3.00016e-06
 Reference value :  3.00023e-06
 Reference value :  3.00037e-06
 Reference value :  3.00057e-06
 Reference value :  3.00093e-06
 Reference value :  3.00143e-06
 Reference value :  3.00196e-06
 Reference value :  3.00260e-06
 Reference value :  3.00337e-06
 Reference value :  3.00412e-06
 Reference value :  3.00497e-06
 Reference value :  3.00575e-06
 Reference value :  3.00655e-06
 Reference value :  3.00763e-06
 Reference value :  3.00863e-06
 Reference value :  3.00964e-06
 Reference value :  3.01107e-06
 Reference value :  3.01274e-06
 Reference value :  3.01546e-06
 Reference value :  3.01836e-06
 Reference value :  3.02065e-06
 Reference value :  3.02252e-06
 Reference value :  3.02430e-06
 Reference value :  3.02589e-06
 Reference value :  3.02761e-06
 Reference value :  3.02964e-06
 Reference value :  3.03162e-06
 Reference value :  3.03453e-06
 Reference value :  3.03782e-06
 Reference value :  3.04339e-06
 Reference value :  3.05151e-06
 Reference value :  3.06448e-06
 Reference value :  3.08625e-06
 Reference value :  3.12107e-06
 Reference value :  3.15446e-06
 Reference value :  3.19152e-06
 Reference value :  3.23707e-06
 Reference value :  3.25010e-06
 Reference value :  3.25011e-06
 Reference value :  3.25013e-06
 Reference value :  3.25017e-06
 Reference value :  3.25020e-06
 Reference value :  3.25020e-06
 Reference value :  3.25020e-06
 Reference value :  3.25021e-06
 Reference value :  3.25021e-06
 Reference value :  3.25022e-06
 Reference value :  3.25025e-06
 Reference value :  3.25029e-06
 Reference value :  3.25039e-06
 Reference value :  3.25058e-06
 Reference value :  3.25091e-06
 Reference value :  3.25157e-06
 Reference value :  3.25218e-06
 Reference value :  3.25282e-06
 Reference value :  3.25352e-06
 Reference value :  3.25442e-06
 Reference value :  3.25516e-06
 Reference value :  3.25599e-06
 Reference value :  3.25684e-06
 Reference value :  3.25773e-06
 Reference value :  3.25893e-06
 Reference value :  3.26074e-06
 Reference value :  3.26320e-06
 Reference value :  3.26626e-06
 Reference value :  3.27058e-06
 Reference value :  3.27719e-06
 Reference value :  3.29041e-06
 Reference value :  3.31663e-06
 Reference value :  3.36907e-06
 Reference value :  3.47395e-06
 Reference value :  3.50000e-06
 Reference value :  3.50001e-06
 Reference value :  3.50003e-06
 Reference value :  3.50007e-06
 Reference value :  3.50010e-06
 Reference value :  3.50010e-06
 Reference value :  3.50011e-06
 Reference value :  3.50013e-06
 Reference value :  3.50016e-06
 Reference value :  3.50023e-06
 Reference value :  3.50037e-06
 Reference value :  3.50057e-06
 Reference value :  3.50093e-06
 Reference value :  3.50143e-06
 Reference value :  3.50196e-06
 Reference value :  3.50260e-06
 Reference value :  3.50337e-06
 Reference value :  3.50412e-06
 Reference value :  3.50493e-06
 Reference value :  3.50582e-06
 Reference value :  3.50676e-06
 Reference value :  3.50784e-06
 Reference value :  3.50917e-06
 Reference value :  3.51036e-06
 Reference value :  3.51162e-06
 Reference value :  3.51343e-06
 Reference value :  3.51489e-06
 Reference value :  3.51649e-06
 Reference value :  3.51806e-06
 Reference value :  3.51990e-06
 Reference value :  3.52349e-06
 Reference value :  3.52862e-06
 Reference value :  3.53889e-06
 Reference value :  3.55943e-06
 Reference value :  3.60051e-06
 Reference value :  3.68266e-06
 Reference value :  3.75010e-06
 Reference value :  3.75011e-06
 Reference value :  3.75013e-06
 Reference value :  3.75017e-06
 Reference value :  3.75020e-06
 Reference value :  3.75020e-06
 Reference value :  3.75020e-06
 Reference value :  3.75021e-06
 Reference value :  3.75021e-06
 Reference value :  3.75022e-06
 Reference value :  3.75025e-06
 Reference value :  3.75029e-06
 Reference value :  3.75039e-06
 Reference value :  3.75057e-06
 Reference value :  3.75090e-06
 Reference value :  3.75156e-06
 Reference value :  3.75215e-06
 Reference value :  3.75279e-06
 Reference value :  3.75349e-06
 Reference value :  3.75440e-06
 Reference value :  3.75514e-06
 Reference value :  3.75598e-06
 Reference value :  3.75670e-06
 Reference value :  3.75750e-06
 Reference value :  3.75853e-06
 Reference value :  3.75963e-06
 Reference value :  3.76183e-06
 Reference value :  3.76414e-06
 Reference value :  3.76821e-06
 Reference value :  3.77257e-06
 Reference value :  3.78128e-06
 Reference value :  3.79871e-06
 Reference value :  3.83356e-06
 Reference value :  3.90327e-06
 Reference value :  4.00000e-06
 Reference value :  4.00001e-06
 Reference value :  4.00003e-06
 Reference value :  4.00007e-06
 Reference value :  4.00010e-06
 Reference value :  4.00010e-06
 Reference value :  4.00011e-06
 Reference value :  4.00013e-06
 Reference value :  4.00016e-06
 Reference value :  4.00023e-06
 Reference value :  4.00037e-06
 Reference value :  4.00057e-06
 Reference value :  4.00093e-06
 Reference value :  4.00143e-06
 Reference value :  4.00196e-06
 Reference value :  4.00260e-06
 Reference value :  4.00337e-06
 Reference value :  4.00412e-06
 Reference value :  4.00497e-06
 Reference value :  4.00572e-06
 Reference value :  4.00654e-06
 Reference value :  4.00744e-06
 Reference value :  4.00837e-06
 Reference value :  4.00934e-06
 Reference value :  4.01064e-06
 Reference value :  4.01218e-06
 Reference value :  4.01457e-06
 Reference value :  4.01792e-06
 Reference value :  4.02026e-06
 Reference value :  4.02228e-06
 Reference value :  4.02419e-06
 Reference value :  4.02612e-06
 Reference value :  4.02795e-06
 Reference value :  4.03025e-06
 Reference value :  4.03235e-06
 Reference value :  4.03534e-06
 Reference value :  4.03873e-06
 Reference value :  4.04393e-06
 Reference value :  4.05144e-06
 Reference value :  4.06277e-06
 Reference value :  4.08105e-06
 Reference value :  4.10307e-06
 Reference value :  4.12610e-06
 Reference value :  4.14907e-06
 Reference value :  4.18220e-06
 Reference value :  4.22330e-06
 Reference value :  4.25010e-06
 Reference value :  4.25011e-06
 Reference value :  4.25013e-06
 Reference value :  4.25017e-06
 Reference value :  4.25020e-06
 Reference value :  4.25020e-06
 Reference value :  4.25020e-06
 Reference value :  4.25021e-06
 Reference value :  4.25021e-06
 Reference value :  4.25022e-06
 Reference value :  4.25025e-06
 Reference value :  4.25029e-06
 Reference value :  4.25039e-06
 Reference value :  4.25057e-06
 Reference value :  4.25090e-06
 Reference value :  4.25155e-06
 Reference value :  4.25215e-06
 Reference value :  4.25279e-06
 Reference value :  4.25349e-06
 Reference value :  4.25440e-06
 Reference value :  4.25516e-06
 Reference value :  4.25601e-06
 Reference value :  4.25687e-06
 Reference value :  4.25777e-06
 Reference value :  4.25897e-06
 Reference value :  4.26085e-06
 Reference value :  4.26325e-06
 Reference value :  4.26641e-06
 Reference value :  4.27071e-06
 Reference value :  4.27752e-06
 Reference value :  4.29114e-06
 Reference value :  4.31760e-06
 Reference value :  4.37051e-06
 Reference value :  4.47632e-06
 Reference value :  4.50000e-06
 Reference value :  4.50001e-06
 Reference value :  4.50003e-06
 Reference value :  4.50007e-06
 Reference value :  4.50010e-06
 Reference value :  4.50010e-06
 Reference value :  4.50011e-06
 Reference value :  4.50013e-06
 Reference value :  4.50016e-06
 Reference value :  4.50023e-06
 Reference value :  4.50037e-06
 Reference value :  4.50057e-06
 Reference value :  4.50093e-06
 Reference value :  4.50143e-06
 Reference value :  4.50196e-06
 Reference value :  4.50260e-06
 Reference value :  4.50336e-06
 Reference value :  4.50412e-06
 Reference value :  4.50495e-06
 Reference value :  4.50584e-06
 Reference value :  4.50677e-06
 Reference value :  4.50787e-06
 Reference value :  4.50905e-06
 Reference value :  4.51022e-06
 Reference value :  4.51144e-06
 Reference value :  4.51308e-06
 Reference value :  4.51448e-06
 Reference value :  4.51598e-06
 Reference value :  4.51752e-06
 Reference value :  4.51931e-06
 Reference value :  4.52275e-06
 Reference value :  4.52779e-06
 Reference value :  4.53787e-06
 Reference value :  4.55804e-06
 Reference value :  4.59837e-06
 Reference value :  4.67903e-06
 Reference value :  4.75010e-06
 Reference value :  4.75011e-06
 Reference value :  4.75013e-06
 Reference value :  4.75017e-06
 Reference value :  4.75020e-06
 Reference value :  4.75020e-06
 Reference value :  4.75020e-06
 Reference value :  4.75021e-06
 Reference value :  4.75021e-06
 Reference value :  4.75022e-06
 Reference value :  4.75025e-06
 Reference value :  4.75029e-06
 Reference value :  4.75039e-06
 Reference value :  4.75057e-06
 Reference value :  4.75090e-06
 Reference value :  4.75155e-06
 Reference value :  4.75215e-06
 Reference value :  4.75278e-06
 Reference value :  4.75348e-06
 Reference value :  4.75440e-06
 Reference value :  4.75514e-06
 Reference value :  4.75598e-06
 Reference value :  4.75670e-06
 Reference value :  4.75751e-06
 Reference value :  4.75855e-06
 Reference value :  4.75965e-06
 Reference value :  4.76186e-06
 Reference value :  4.76418e-06
 Reference value :  4.76826e-06
 Reference value :  4.77263e-06
 Reference value :  4.78139e-06
 Reference value :  4.79889e-06
 Reference value :  4.83389e-06
 Reference value :  4.90390e-06
 Reference value :  5.00000e-06
 Reference value :  5.00001e-06
 Reference value :  5.00003e-06
 Reference value :  5.00007e-06
 Reference value :  5.00010e-06
 Reference value :  5.00010e-06
 Reference value :  5.00011e-06
 Reference value :  5.00013e-06
 Reference value :  5.00016e-06
 Reference value :  5.00023e-06
 Reference value :  5.00037e-06
 Reference value :  5.00057e-06
 Reference value :  5.00093e-06
 Reference value :  5.00143e-06
 Reference value :  5.00196e-06
 Reference value :  5.00260e-06
 Reference value :  5.00336e-06
 Reference value :  5.00412e-06
 Reference value :  5.00497e-06
 Reference value :  5.00572e-06
 Reference value :  5.00653e-06
 Reference value :  5.00734e-06
 Reference value :  5.00834e-06
 Reference value :  5.00924e-06
 Reference value :  5.01050e-06
 Reference value :  5.01208e-06
 Reference value :  5.01443e-06
 Reference value :  5.01784e-06
 Reference value :  5.02020e-06
 Reference value :  5.02227e-06
 Reference value :  5.02424e-06
 Reference value :  5.02618e-06
 Reference value :  5.02805e-06
 Reference value :  5.03034e-06
 Reference value :  5.03250e-06
 Reference value :  5.03545e-06
 Reference value :  5.03888e-06
 Reference value :  5.04398e-06
 Reference value :  5.05131e-06
 Reference value :  5.06228e-06
 Reference value :  5.07650e-06
 Reference value :  5.09070e-06
 Reference value :  5.11102e-06
 Reference value :  5.13652e-06
 Reference value :  5.17121e-06
 Reference value :  5.21117e-06
 Reference value :  5.25010e-06
 Reference value :  5.25011e-06
 Reference value :  5.25013e-06
 Reference value :  5.25017e-06
 Reference value :  5.25020e-06
 Reference value :  5.25020e-06
 Reference value :  5.25020e-06
 Reference value :  5.25021e-06
 Reference value :  5.25021e-06
 Reference value :  5.25022e-06
 Reference value :  5.25025e-06
 Reference value :  5.25029e-06
 Reference value :  5.25039e-06
 Reference value :  5.25057e-06
 Reference value :  5.25090e-06
 Reference value :  5.25156e-06
 Reference value :  5.25216e-06
 Reference value :  5.25280e-06
 Reference value :  5.25350e-06
 Reference value :  5.25442e-06
 Reference value :  5.25517e-06
 Reference value :  5.25601e-06
 Reference value :  5.25687e-06
 Reference value :  5.25778e-06
 Reference value :  5.25897e-06
 Reference value :  5.26088e-06
 Reference value :  5.26326e-06
 Reference value :  5.26643e-06
 Reference value :  5.27071e-06
 Reference value :  5.27776e-06
 Reference value :  5.29186e-06
 Reference value :  5.31821e-06
 Reference value :  5.37091e-06
 Reference value :  5.47631e-06
 Reference value :  5.50000e-06
 Reference value :  5.50001e-06
 Reference value :  5.50003e-06
 Reference value :  5.50007e-06
 Reference value :  5.50010e-06
 Reference value :  5.50010e-06
 Reference value :  5.50011e-06
 Reference value :  5.50013e-06
 Reference value :  5.50016e-06
 Reference value :  5.50023e-06
 Reference value :  5.50037e-06
 Reference value :  5.50057e-06
 Reference value :  5.50093e-06
 Reference value :  5.50143e-06
 Reference value :  5.50196e-06
 Reference value :  5.50260e-06
 Reference value :  5.50337e-06
 Reference value :  5.50412e-06
 Reference value :  5.50495e-06
 Reference value :  5.50595e-06
 Reference value :  5.50685e-06
 Reference value :  5.50811e-06
 Reference value :  5.50918e-06
 Reference value :  5.51051e-06
 Reference value :  5.51187e-06
 Reference value :  5.51336e-06
 Reference value :  5.51509e-06
 Reference value :  5.51665e-06
 Reference value :  5.51889e-06
 Reference value :  5.52119e-06
 Reference value :  5.52517e-06
 Reference value :  5.53114e-06
 Reference value :  5.54118e-06
 Reference value :  5.55968e-06
 Reference value :  5.59159e-06
 Reference value :  5.65156e-06
 Reference value :  5.75010e-06
 Reference value :  5.75011e-06
 Reference value :  5.75013e-06
 Reference value :  5.75017e-06
 Reference value :  5.75020e-06
 Reference value :  5.75020e-06
 Reference value :  5.75020e-06
 Reference value :  5.75021e-06
 Reference value :  5.75021e-06
 Reference value :  5.75022e-06
 Reference value :  5.75025e-06
 Reference value :  5.75029e-06
 Reference value :  5.75039e-06
 Reference value :  5.75057e-06
 Reference value :  5.75090e-06
 Reference value :  5.75156e-06
 Reference value :  5.75216e-06
 Reference value :  5.75279e-06
 Reference value :  5.75350e-06
 Reference value :  5.75441e-06
 Reference value :  5.75514e-06
 Reference value :  5.75598e-06
 Reference value :  5.75670e-06
 Reference value :  5.75750e-06
 Reference value :  5.75853e-06
 Reference value :  5.75963e-06
 Reference value :  5.76182e-06
 Reference value :  5.76414e-06
 Reference value :  5.76820e-06
 Reference value :  5.77256e-06
 Reference value :  5.78127e-06
 Reference value :  5.79869e-06
 Reference value :  5.83353e-06
 Reference value :  5.90321e-06
 Reference value :  6.00000e-06
 Reference value :  6.00001e-06
 Reference value :  6.00003e-06
 Reference value :  6.00007e-06
 Reference value :  6.00010e-06
 Reference value :  6.00010e-06
 Reference value :  6.00011e-06
 Reference value :  6.00013e-06
 Reference value :  6.00016e-06
 Reference value :  6.00023e-06
 Reference value :  6.00037e-06
 Reference value :  6.00057e-06
 Reference value :  6.00093e-06
 Reference value :  6.00143e-06
 Reference value :  6.00196e-06
 Reference value :  6.00260e-06
 Reference value :  6.00337e-06
 Reference value :  6.00412e-06
 Reference value :  6.00497e-06
 Reference value :  6.00575e-06
 Reference value :  6.00655e-06
 Reference value :  6.00731e-06
 Reference value :  6.00820e-06
 Reference value :  6.00910e-06
 Reference value :  6.01026e-06
 Reference value :  6.01205e-06
 Reference value :  6.01418e-06
 Reference value :  6.01683e-06
 Reference value :  6.01900e-06
 Reference value :  6.02133e-06
 Reference value :  6.02301e-06
 Reference value :  6.02459e-06
 Reference value :  6.02590e-06
 Reference value :  6.02741e-06
 Reference value :  6.02916e-06
 Reference value :  6.03122e-06
 Reference value :  6.03392e-06
 Reference value :  6.03744e-06
 Reference value :  6.04399e-06
 Reference value :  6.05144e-06
 Reference value :  6.05969e-06
 Reference value :  6.07006e-06
 Reference value :  6.08742e-06
 Reference value :  6.11094e-06
 Reference value :  6.15406e-06
 Reference value :  6.21207e-06
 Reference value :  6.25010e-06
 Reference value :  6.25011e-06
 Reference value :  6.25013e-06
 Reference value :  6.25017e-06
 Reference value :  6.25020e-06
 Reference value :  6.25020e-06
 Reference value :  6.25020e-06
 Reference value :  6.25021e-06
 Reference value :  6.25021e-06
 Reference value :  6.25022e-06
 Reference value :  6.25025e-06
 Reference value :  6.25029e-06
 Reference value :  6.25039e-06
 Reference value :  6.25057e-06
 Reference value :  6.25090e-06
 Reference value :  6.25155e-06
 Reference value :  6.25216e-06
 Reference value :  6.25279e-06
 Reference value :  6.25350e-06
 Reference value :  6.25441e-06
 Reference value :  6.25516e-06
 Reference value :  6.25601e-06
 Reference value :  6.25686e-06
 Reference value :  6.25776e-06
 Reference value :  6.25897e-06
 Reference value :  6.26084e-06
 Reference value :  6.26326e-06
 Reference value :  6.26639e-06
 Reference value :  6.27069e-06
 Reference value :  6.27762e-06
 Reference value :  6.29146e-06
 Reference value :  6.31778e-06
 Reference value :  6.37041e-06
 Reference value :  6.47567e-06
 Reference value :  6.50000e-06
 Reference value :  6.50001e-06
 Reference value :  6.50003e-06
 Reference value :  6.50007e-06
 Reference value :  6.50010e-06
 Reference value :  6.50010e-06
 Reference value :  6.50011e-06
 Reference value :  6.50013e-06
 Reference value :  6.50016e-06
 Reference value :  6.50023e-06
 Reference value :  6.50037e-06
 Reference value :  6.50057e-06
 Reference value :  6.50093e-06
 Reference value :  6.50143e-06
 Reference value :  6.50196e-06
 Reference value :  6.50260e-06
 Reference value :  6.50337e-06
 Reference value :  6.50412e-06
 Reference value :  6.50492e-06
 Reference value :  6.50581e-06
 Reference value :  6.50675e-06
 Reference value :  6.50783e-06
 Reference value :  6.50921e-06
 Reference value :  6.51040e-06
 Reference value :  6.51167e-06
 Reference value :  6.51352e-06
 Reference value :  6.51522e-06
 Reference value :  6.51687e-06
 Reference value :  6.51887e-06
 Reference value :  6.52106e-06
 Reference value :  6.52467e-06
 Reference value :  6.52996e-06
 Reference value :  6.53910e-06
 Reference value :  6.55554e-06
 Reference value :  6.58456e-06
 Reference value :  6.63923e-06
 Reference value :  6.73940e-06
 Reference value :  6.75010e-06
 Reference value :  6.75011e-06
 Reference value :  6.75013e-06
 Reference value :  6.75017e-06
 Reference value :  6.75020e-06
 Reference value :  6.75020e-06
 Reference value :  6.75020e-06
 Reference value :  6.75021e-06
 Reference value :  6.75021e-06
 Reference value :  6.75022e-06
 Reference value :  6.75025e-06
 Reference value :  6.75029e-06
 Reference value :  6.75039e-06
 Reference value :  6.75058e-06
 Reference value :  6.75091e-06
 Reference value :  6.75158e-06
 Reference value :  6.75219e-06
 Reference value :  6.75283e-06
 Reference value :  6.75353e-06
 Reference value :  6.75443e-06
 Reference value :  6.75514e-06
 Reference value :  6.75595e-06
 Reference value :  6.75667e-06
 Reference value :  6.75746e-06
 Reference value :  6.75847e-06
 Reference value :  6.75955e-06
 Reference value :  6.76171e-06
 Reference value :  6.76400e-06
 Reference value :  6.76801e-06
 Reference value :  6.77230e-06
 Reference value :  6.78088e-06
 Reference value :  6.79803e-06
 Reference value :  6.83235e-06
 Reference value :  6.90097e-06
 Reference value :  7.00000e-06
 Reference value :  7.00001e-06
 Reference value :  7.00003e-06
 Reference value :  7.00007e-06
 Reference value :  7.00010e-06
 Reference value :  7.00010e-06
 Reference value :  7.00011e-06
 Reference value :  7.00013e-06
 Reference value :  7.00016e-06
 Reference value :  7.00023e-06
 Reference value :  7.00037e-06
 Reference value :  7.00057e-06
 Reference value :  7.00093e-06
 Reference value :  7.00143e-06
 Reference value :  7.00196e-06
 Reference value :  7.00260e-06
 Reference value :  7.00336e-06
 Reference value :  7.00412e-06
 Reference value :  7.00497e-06
 Reference value :  7.00572e-06
 Reference value :  7.00653e-06
 Reference value :  7.00731e-06
 Reference value :  7.00826e-06
 Reference value :  7.00915e-06
 Reference value :  7.01037e-06
 Reference value :  7.01200e-06
 Reference value :  7.01424e-06
 Reference value :  7.01717e-06
 Reference value :  7.01947e-06
 Reference value :  7.02190e-06
 Reference value :  7.02367e-06
 Reference value :  7.02529e-06
 Reference value :  7.02680e-06
 Reference value :  7.02838e-06
 Reference value :  7.03019e-06
 Reference value :  7.03255e-06
 Reference value :  7.03526e-06
 Reference value :  7.03975e-06
 Reference value :  7.04413e-06
 Reference value :  7.05134e-06
 Reference value :  7.06037e-06
 Reference value :  7.07828e-06
 Reference value :  7.10414e-06
 Reference value :  7.15586e-06
 Reference value :  7.24180e-06
 Reference value :  7.25010e-06
 Reference value :  7.25011e-06
 Reference value :  7.25013e-06
 Reference value :  7.25017e-06
 Reference value :  7.25020e-06
 Reference value :  7.25020e-06
 Reference value :  7.25020e-06
 Reference value :  7.25021e-06
 Reference value :  7.25021e-06
 Reference value :  7.25022e-06
 Reference value :  7.25025e-06
 Reference value :  7.25029e-06
 Reference value :  7.25039e-06
 Reference value :  7.25058e-06
 Reference value :  7.25092e-06
 Reference value :  7.25158e-06
 Reference value :  7.25219e-06
 Reference value :  7.25284e-06
 Reference value :  7.25354e-06
 Reference value :  7.25443e-06
 Reference value :  7.25513e-06
 Reference value :  7.25593e-06
 Reference value :  7.25679e-06
 Reference value :  7.25767e-06
 Reference value :  7.25883e-06
 Reference value :  7.26072e-06
 Reference value :  7.26319e-06
 Reference value :  7.26620e-06
 Reference value :  7.27052e-06
 Reference value :  7.27698e-06
 Reference value :  7.28990e-06
 Reference value :  7.31574e-06
 Reference value :  7.36742e-06
 Reference value :  7.47077e-06
 Reference value :  7.50000e-06
 Reference value :  7.50001e-06
 Reference value :  7.50003e-06
 Reference value :  7.50007e-06
 Reference value :  7.50010e-06
 Reference value :  7.50010e-06
 Reference value :  7.50011e-06
 Reference value :  7.50013e-06
 Reference value :  7.50016e-06
 Reference value :  7.50023e-06
 Reference value :  7.50037e-06
 Reference value :  7.50056e-06
 Reference value :  7.50092e-06
 Reference value :  7.50145e-06
 Reference value :  7.50199e-06
 Reference value :  7.50264e-06
 Reference value :  7.50341e-06
 Reference value :  7.50418e-06
 Reference value :  7.50497e-06
 Reference value :  7.50594e-06
 Reference value :  7.50684e-06
 Reference value :  7.50804e-06
 Reference value :  7.50928e-06
 Reference value :  7.51052e-06
 Reference value :  7.51180e-06
 Reference value :  7.51346e-06
 Reference value :  7.51490e-06
 Reference value :  7.51644e-06
 Reference value :  7.51807e-06
 Reference value :  7.51992e-06
 Reference value :  7.52332e-06
 Reference value :  7.52826e-06
 Reference value :  7.53814e-06
 Reference value :  7.55702e-06
 Reference value :  7.59349e-06
 Reference value :  7.66643e-06
 Reference value :  7.75010e-06
 Reference value :  7.75011e-06
 Reference value :  7.75013e-06
 Reference value :  7.75017e-06
 Reference value :  7.75020e-06
 Reference value :  7.75020e-06
 Reference value :  7.75020e-06
 Reference value :  7.75021e-06
 Reference value :  7.75021e-06
 Reference value :  7.75022e-06
 Reference value :  7.75025e-06
 Reference value :  7.75029e-06
 Reference value :  7.75039e-06
 Reference value :  7.75057e-06
 Reference value :  7.75091e-06
 Reference value :  7.75157e-06
 Reference value :  7.75217e-06
 Reference value :  7.75282e-06
 Reference value :  7.75352e-06
 Reference value :  7.75442e-06
 Reference value :  7.75512e-06
 Reference value :  7.75591e-06
 Reference value :  7.75663e-06
 Reference value :  7.75741e-06
 Reference value :  7.75844e-06
 Reference value :  7.75953e-06
 Reference value :  7.76171e-06
 Reference value :  7.76402e-06
 Reference value :  7.76804e-06
 Reference value :  7.77236e-06
 Reference value :  7.78099e-06
 Reference value :  7.79825e-06
 Reference value :  7.83278e-06
 Reference value :  7.90183e-06
 Reference value :  8.00000e-06
 Reference value :  8.00001e-06
 Reference value :  8.00003e-06
 Reference value :  8.00007e-06
 Reference value :  8.00010e-06
 Reference value :  8.00010e-06
 Reference value :  8.00011e-06
 Reference value :  8.00013e-06
 Reference value :  8.00016e-06
 Reference value :  8.00023e-06
 Reference value :  8.00037e-06
 Reference value :  8.00056e-06
 Reference value :  8.00092e-06
 Reference value :  8.00145e-06
 Reference value :  8.00199e-06
 Reference value :  8.00265e-06
 Reference value :  8.00341e-06
 Reference value :  8.00418e-06
 Reference value :  8.00505e-06
 Reference value :  8.00587e-06
 Reference value :  8.00666e-06
 Reference value :  8.00742e-06
 Reference value :  8.00831e-06
 Reference value :  8.00922e-06
 Reference value :  8.01040e-06
 Reference value :  8.01220e-06
 Reference value :  8.01438e-06
 Reference value :  8.01717e-06
 Reference value :  8.01983e-06
 Reference value :  8.02252e-06
 Reference value :  8.02523e-06
 Reference value :  8.02812e-06
 Reference value :  8.03391e-06
 Reference value :  8.04245e-06
 Reference value :  8.05443e-06
 Reference value :  8.07670e-06
 Reference value :  8.12123e-06
 Reference value :  8.21030e-06
 Reference value :  8.25010e-06
 Reference value :  8.25011e-06
 Reference value :  8.25013e-06
 Reference value :  8.25017e-06
 Reference value :  8.25020e-06
 Reference value :  8.25020e-06
 Reference value :  8.25020e-06
 Reference value :  8.25021e-06
 Reference value :  8.25021e-06
 Reference value :  8.25022e-06
 Reference value :  8.25025e-06
 Reference value :  8.25029e-06
 Reference value :  8.25039e-06
 Reference value :  8.25057e-06
 Reference value :  8.25095e-06
 Reference value :  8.25158e-06
 Reference value :  8.25221e-06
 Reference value :  8.25286e-06
 Reference value :  8.25356e-06
 Reference value :  8.25444e-06
 Reference value :  8.25540e-06
 Reference value :  8.25662e-06
 Reference value :  8.25791e-06
 Reference value :  8.25938e-06
 Reference value :  8.26204e-06
 Reference value :  8.26458e-06
 Reference value :  8.26859e-06
 Reference value :  8.27333e-06
 Reference value :  8.28281e-06
 Reference value :  8.30177e-06
 Reference value :  8.33968e-06
 Reference value :  8.41552e-06
 Reference value :  8.50000e-06
 Reference value :  8.50000e-06
 Reference value :  8.50000e-06
 Reference value :  8.50000e-06
 Reference value :  8.50000e-06
 Reference value :  8.50000e-06
 Reference value :  8.50000e-06
 Reference value :  8.50000e-06
 Reference value :  8.50001e-06
 Reference value :  8.50001e-06
 Reference value :  8.50002e-06
 Reference value :  8.50004e-06
 Reference value :  8.50008e-06
 Reference value :  8.50010e-06
 Reference value :  8.50010e-06
 Reference value :  8.50011e-06
 Reference value :  8.50012e-06
 Reference value :  8.50014e-06
 Reference value :  8.50018e-06
 Reference value :  8.50026e-06
 Reference value :  8.50042e-06
 Reference value :  8.50074e-06
 Reference value :  8.50127e-06
 Reference value :  8.50184e-06
 Reference value :  8.50268e-06
 Reference value :  8.50347e-06
 Reference value :  8.50424e-06
 Reference value :  8.50514e-06
 Reference value :  8.50596e-06
 Reference value :  8.50716e-06
 Reference value :  8.50872e-06
 Reference value :  8.51040e-06
 Reference value :  8.51199e-06
 Reference value :  8.51370e-06
 Reference value :  8.51557e-06
 Reference value :  8.51859e-06
 Reference value :  8.52179e-06
 Reference value :  8.52820e-06
 Reference value :  8.53503e-06
 Reference value :  8.53975e-06
 Reference value :  8.54382e-06
 Reference value :  8.54707e-06
 Reference value :  8.54994e-06
 Reference value :  8.55215e-06
 Reference value :  8.55445e-06
 Reference value :  8.55678e-06
 Reference value :  8.55947e-06
 Reference value :  8.56239e-06
 Reference value :  8.56557e-06
 Reference value :  8.56963e-06
 Reference value :  8.57537e-06
 Reference value :  8.58297e-06
 Reference value :  8.59235e-06
 Reference value :  8.60595e-06
 Reference value :  8.62219e-06
 Reference value :  8.64273e-06
 Reference value :  8.66687e-06
 Reference value :  8.69417e-06
 Reference value :  8.72818e-06
 Reference value :  8.75010e-06
 Reference value :  8.75011e-06
 Reference value :  8.75013e-06
 Reference value :  8.75017e-06
 Reference value :  8.75020e-06
 Reference value :  8.75020e-06
 Reference value :  8.75020e-06
 Reference value :  8.75021e-06
 Reference value :  8.75021e-06
 Reference value :  8.75022e-06
 Reference value :  8.75025e-06
 Reference value :  8.75029e-06
 Reference value :  8.75039e-06
 Reference value :  8.75057e-06
 Reference value :  8.75095e-06
 Reference value :  8.75162e-06
 Reference value :  8.75223e-06
 Reference value :  8.75289e-06
 Reference value :  8.75359e-06
 Reference value :  8.75448e-06
 Reference value :  8.75519e-06
 Reference value :  8.75601e-06
 Reference value :  8.75683e-06
 Reference value :  8.75769e-06
 Reference value :  8.75883e-06
 Reference value :  8.76059e-06
 Reference value :  8.76331e-06
 Reference value :  8.76618e-06
 Reference value :  8.77068e-06
 Reference value :  8.77683e-06
 Reference value :  8.78914e-06
 Reference value :  8.81376e-06
 Reference value :  8.86300e-06
 Reference value :  8.95175e-06
 Reference value :  9.00000e-06
 Reference value :  9.00001e-06
 Reference value :  9.00003e-06
 Reference value :  9.00007e-06
 Reference value :  9.00010e-06
 Reference value :  9.00010e-06
 Reference value :  9.00011e-06
 Reference value :  9.00013e-06
 Reference value :  9.00016e-06
 Reference value :  9.00023e-06
 Reference value :  9.00037e-06
 Reference value :  9.00057e-06
 Reference value :  9.00095e-06
 Reference value :  9.00154e-06
 Reference value :  9.00209e-06
 Reference value :  9.00276e-06
 Reference value :  9.00352e-06
 Reference value :  9.00426e-06
 Reference value :  9.00503e-06
 Reference value :  9.00584e-06
 Reference value :  9.00675e-06
 Reference value :  9.00781e-06
 Reference value :  9.00943e-06
 Reference value :  9.01164e-06
 Reference value :  9.01414e-06
 Reference value :  9.01612e-06
 Reference value :  9.01826e-06
 Reference value :  9.02032e-06
 Reference value :  9.02304e-06
 Reference value :  9.02662e-06
 Reference value :  9.03176e-06
 Reference value :  9.03959e-06
 Reference value :  9.05243e-06
 Reference value :  9.07245e-06
 Reference value :  9.10566e-06
 Reference value :  9.15963e-06
 Reference value :  9.24825e-06
 Reference value :  9.25010e-06
 Reference value :  9.25011e-06
 Reference value :  9.25013e-06
 Reference value :  9.25017e-06
 Reference value :  9.25020e-06
 Reference value :  9.25020e-06
 Reference value :  9.25020e-06
 Reference value :  9.25021e-06
 Reference value :  9.25021e-06
 Reference value :  9.25022e-06
 Reference value :  9.25025e-06
 Reference value :  9.25029e-06
 Reference value :  9.25039e-06
 Reference value :  9.25058e-06
 Reference value :  9.25096e-06
 Reference value :  9.25157e-06
 Reference value :  9.25219e-06
 Reference value :  9.25284e-06
 Reference value :  9.25354e-06
 Reference value :  9.25445e-06
 Reference value :  9.25517e-06
 Reference value :  9.25600e-06
 Reference value :  9.25673e-06
 Reference value :  9.25753e-06
 Reference value :  9.25860e-06
 Reference value :  9.25973e-06
 Reference value :  9.26198e-06
 Reference value :  9.26435e-06
 Reference value :  9.26846e-06
 Reference value :  9.27293e-06
 Reference value :  9.28186e-06
 Reference value :  9.29973e-06
 Reference value :  9.33548e-06
 Reference value :  9.40696e-06
 Reference value :  9.50000e-06
 Reference value :  9.50001e-06
 Reference value :  9.50003e-06
 Reference value :  9.50007e-06
 Reference value :  9.50010e-06
 Reference value :  9.50010e-06
 Reference value :  9.50011e-06
 Reference value :  9.50013e-06
 Reference value :  9.50016e-06
 Reference value :  9.50023e-06
 Reference value :  9.50037e-06
 Reference value :  9.50057e-06
 Reference value :  9.50095e-06
 Reference value :  9.50154e-06
 Reference value :  9.50209e-06
 Reference value :  9.50276e-06
 Reference value :  9.50352e-06
 Reference value :  9.50439e-06
 Reference value :  9.50519e-06
 Reference value :  9.50605e-06
 Reference value :  9.50684e-06
 Reference value :  9.50758e-06
 Reference value :  9.50846e-06
 Reference value :  9.50937e-06
 Reference value :  9.51056e-06
 Reference value :  9.51240e-06
 Reference value :  9.51474e-06
 Reference value :  9.51829e-06
 Reference value :  9.52070e-06
 Reference value :  9.52285e-06
 Reference value :  9.52490e-06
 Reference value :  9.52669e-06
 Reference value :  9.52857e-06
 Reference value :  9.53088e-06
 Reference value :  9.53344e-06
 Reference value :  9.53651e-06
 Reference value :  9.54088e-06
 Reference value :  9.54671e-06
 Reference value :  9.55547e-06
 Reference value :  9.56852e-06
 Reference value :  9.58833e-06
 Reference value :  9.61927e-06
 Reference value :  9.66704e-06
 Reference value :  9.73846e-06
 Reference value :  9.75010e-06
 Reference value :  9.75011e-06
 Reference value :  9.75013e-06
 Reference value :  9.75017e-06
 Reference value :  9.75020e-06
 Reference value :  9.75020e-06
 Reference value :  9.75020e-06
 Reference value :  9.75021e-06
 Reference value :  9.75021e-06
 Reference value :  9.75022e-06
 Reference value :  9.75025e-06
 Reference value :  9.75029e-06
 Reference value :  9.75039e-06
 Reference value :  9.75057e-06
 Reference value :  9.75090e-06
 Reference value :  9.75154e-06
 Reference value :  9.75213e-06
 Reference value :  9.75276e-06
 Reference value :  9.75347e-06
 Reference value :  9.75438e-06
 Reference value :  9.75516e-06
 Reference value :  9.75603e-06
 Reference value :  9.75690e-06
 Reference value :  9.75782e-06
 Reference value :  9.75903e-06
 Reference value :  9.76096e-06
 Reference value :  9.76333e-06
 Reference value :  9.76658e-06
 Reference value :  9.77087e-06
 Reference value :  9.77828e-06
 Reference value :  9.79311e-06
 Reference value :  9.81999e-06
 Reference value :  9.84259e-06
 Reference value :  9.86625e-06
 Reference value :  9.88147e-06
 Reference value :  9.89572e-06
 Reference value :  9.90548e-06
 Reference value :  9.91797e-06
 Reference value :  9.94295e-06
 Reference value :  9.97112e-06
 Reference value :  1.00000e-05
 Reference value :  1.00000e-05
 Reference value :  1.00000e-05
 Reference value :  1.00001e-05
 Reference value :  1.00001e-05
 Reference value :  1.00001e-05
 Reference value :  1.00001e-05
 Reference value :  1.00001e-05
 Reference value :  1.00002e-05
 Reference value :  1.00002e-05
 Reference value :  1.00004e-05
 Reference value :  1.00006e-05
 Reference value :  1.00009e-05
 Reference value :  1.00014e-05
 Reference value :  1.00020e-05
 Reference value :  1.00026e-05
 Reference value :  1.00033e-05
 Reference value :  1.00040e-05
 Reference value :  1.00050e-05
 Reference value :  1.00059e-05
 Reference value :  1.00069e-05
 Reference value :  1.00081e-05
 Reference value :  1.00094e-05
 Reference value :  1.00107e-05
 Reference value :  1.00120e-05
 Reference value :  1.00137e-05
 Reference value :  1.00150e-05
 Reference value :  1.00166e-05
 Reference value :  1.00182e-05
 Reference value :  1.00200e-05
 Reference value :  1.00235e-05
 Reference value :  1.00294e-05
 Reference value :  1.00396e-05
 Reference value :  1.00601e-05
 Reference value :  1.01011e-05
 Reference value :  1.01830e-05
 Reference value :  1.02501e-05
 Reference value :  1.02501e-05
 Reference value :  1.02501e-05
 Reference value :  1.02502e-05
 Reference value :  1.02502e-05
 Reference value :  1.02502e-05
 Reference value :  1.02502e-05
 Reference value :  1.02502e-05
 Reference value :  1.02502e-05
 Reference value :  1.02502e-05
 Reference value :  1.02502e-05
 Reference value :  1.02503e-05
 Reference value :  1.02504e-05
 Reference value :  1.02506e-05
 Reference value :  1.02509e-05
 Reference value :  1.02516e-05
 Reference value :  1.02521e-05
 Reference value :  1.02528e-05
 Reference value :  1.02535e-05
 Reference value :  1.02544e-05
 Reference value :  1.02551e-05
 Reference value :  1.02560e-05
 Reference value :  1.02567e-05
 Reference value :  1.02575e-05
 Reference value :  1.02586e-05
 Reference value :  1.02597e-05
 Reference value :  1.02608e-05
 Reference value :  1.02625e-05
 Reference value :  1.02645e-05
 Reference value :  1.02672e-05
 Reference value :  1.02707e-05
 Reference value :  1.02753e-05
 Reference value :  1.02843e-05
 Reference value :  1.02983e-05
 Reference value :  1.03262e-05
 Reference value :  1.03665e-05
 Reference value :  1.04010e-05
 Reference value :  1.04180e-05
 Reference value :  1.04384e-05
 Reference value :  1.04604e-05
 Reference value :  1.04827e-05
 Reference value :  1.05000e-05
 Reference value :  1.05000e-05
 Reference value :  1.05000e-05
 Reference value :  1.05001e-05
 Reference value :  1.05001e-05
 Reference value :  1.05001e-05
 Reference value :  1.05001e-05
 Reference value :  1.05001e-05
 Reference value :  1.05002e-05
 Reference value :  1.05002e-05
 Reference value :  1.05004e-05
 Reference value :  1.05006e-05
 Reference value :  1.05009e-05
 Reference value :  1.05014e-05
 Reference value :  1.05020e-05
 Reference value :  1.05026e-05
 Reference value :  1.05034e-05
 Reference value :  1.05041e-05
 Reference value :  1.05050e-05
 Reference value :  1.05058e-05
 Reference value :  1.05066e-05
 Reference value :  1.05075e-05
 Reference value :  1.05085e-05
 Reference value :  1.05095e-05
 Reference value :  1.05109e-05
 Reference value :  1.05124e-05
 Reference value :  1.05149e-05
 Reference value :  1.05181e-05
 Reference value :  1.05204e-05
 Reference value :  1.05227e-05
 Reference value :  1.05246e-05
 Reference value :  1.05264e-05
 Reference value :  1.05282e-05
 Reference value :  1.05304e-05
 Reference value :  1.05326e-05
 Reference value :  1.05354e-05
 Reference value :  1.05389e-05
 Reference value :  1.05422e-05
 Reference value :  1.05451e-05
 Reference value :  1.05489e-05
 Reference value :  1.05523e-05
 Reference value :  1.05559e-05
 Reference value :  1.05595e-05
 Reference value :  1.05633e-05
 Reference value :  1.05708e-05
 Reference value :  1.05787e-05
 Reference value :  1.05868e-05
 Reference value :  1.05949e-05
 Reference value :  1.06034e-05
 Reference value :  1.06205e-05
 Reference value :  1.06477e-05
 Reference value :  1.07020e-05
 Reference value :  1.07501e-05
 Reference value :  1.07501e-05
 Reference value :  1.07501e-05
 Reference value :  1.07502e-05
 Reference value :  1.07502e-05
 Reference value :  1.07502e-05
 Reference value :  1.07502e-05
 Reference value :  1.07502e-05
 Reference value :  1.07502e-05
 Reference value :  1.07502e-05
 Reference value :  1.07502e-05
 Reference value :  1.07503e-05
 Reference value :  1.07504e-05
 Reference value :  1.07506e-05
 Reference value :  1.07509e-05
 Reference value :  1.07516e-05
 Reference value :  1.07522e-05
 Reference value :  1.07528e-05
 Reference value :  1.07535e-05
 Reference value :  1.07544e-05
 Reference value :  1.07551e-05
 Reference value :  1.07559e-05
 Reference value :  1.07568e-05
 Reference value :  1.07577e-05
 Reference value :  1.07589e-05
 Reference value :  1.07608e-05
 Reference value :  1.07632e-05
 Reference value :  1.07663e-05
 Reference value :  1.07706e-05
 Reference value :  1.07773e-05
 Reference value :  1.07906e-05
 Reference value :  1.08173e-05
 Reference value :  1.08708e-05
 Reference value :  1.09722e-05
 Reference value :  1.10000e-05
 Reference value :  1.10000e-05
 Reference value :  1.10000e-05
 Reference value :  1.10001e-05
 Reference value :  1.10001e-05
 Reference value :  1.10001e-05
 Reference value :  1.10001e-05
 Reference value :  1.10001e-05
 Reference value :  1.10002e-05
 Reference value :  1.10002e-05
 Reference value :  1.10004e-05
 Reference value :  1.10006e-05
 Reference value :  1.10009e-05
 Reference value :  1.10014e-05
 Reference value :  1.10020e-05
 Reference value :  1.10026e-05
 Reference value :  1.10033e-05
 Reference value :  1.10040e-05
 Reference value :  1.10050e-05
 Reference value :  1.10059e-05
 Reference value :  1.10068e-05
 Reference value :  1.10081e-05
 Reference value :  1.10094e-05
 Reference value :  1.10107e-05
 Reference value :  1.10120e-05
 Reference value :  1.10137e-05
 Reference value :  1.10150e-05
 Reference value :  1.10166e-05
 Reference value :  1.10181e-05
 Reference value :  1.10199e-05
 Reference value :  1.10235e-05
 Reference value :  1.10289e-05
 Reference value :  1.10397e-05
 Reference value :  1.10607e-05
 Reference value :  1.11025e-05
 Reference value :  1.11862e-05
 Reference value :  1.12501e-05
 Reference value :  1.12501e-05
 Reference value :  1.12501e-05
 Reference value :  1.12502e-05
 Reference value :  1.12502e-05
 Reference value :  1.12502e-05
 Reference value :  1.12502e-05
 Reference value :  1.12502e-05
 Reference value :  1.12502e-05
 Reference value :  1.12502e-05
 Reference value :  1.12502e-05
 Reference value :  1.12503e-05
 Reference value :  1.12504e-05
 Reference value :  1.12506e-05
 Reference value :  1.12509e-05
 Reference value :  1.12516e-05
 Reference value :  1.12522e-05
 Reference value :  1.12528e-05
 Reference value :  1.12535e-05
 Reference value :  1.12544e-05
 Reference value :  1.12551e-05
 Reference value :  1.12560e-05
 Reference value :  1.12567e-05
 Reference value :  1.12575e-05
 Reference value :  1.12585e-05
 Reference value :  1.12597e-05
 Reference value :  1.12608e-05
 Reference value :  1.12625e-05
 Reference value :  1.12645e-05
 Reference value :  1.12672e-05
 Reference value :  1.12707e-05
 Reference value :  1.12753e-05
 Reference value :  1.12844e-05
 Reference value :  1.12983e-05
 Reference value :  1.13260e-05
 Reference value :  1.13816e-05
 Reference value :  1.14926e-05
 Reference value :  1.15000e-05
 Reference value :  1.15000e-05
 Reference value :  1.15000e-05
 Reference value :  1.15001e-05
 Reference value :  1.15001e-05
 Reference value :  1.15001e-05
 Reference value :  1.15001e-05
 Reference value :  1.15001e-05
 Reference value :  1.15002e-05
 Reference value :  1.15002e-05
 Reference value :  1.15004e-05
 Reference value :  1.15006e-05
 Reference value :  1.15009e-05
 Reference value :  1.15014e-05
 Reference value :  1.15020e-05
 Reference value :  1.15026e-05
 Reference value :  1.15034e-05
 Reference value :  1.15041e-05
 Reference value :  1.15050e-05
 Reference value :  1.15057e-05
 Reference value :  1.15065e-05
 Reference value :  1.15072e-05
 Reference value :  1.15081e-05
 Reference value :  1.15089e-05
 Reference value :  1.15099e-05
 Reference value :  1.15111e-05
 Reference value :  1.15130e-05
 Reference value :  1.15149e-05
 Reference value :  1.15166e-05
 Reference value :  1.15183e-05
 Reference value :  1.15202e-05
 Reference value :  1.15217e-05
 Reference value :  1.15232e-05
 Reference value :  1.15250e-05
 Reference value :  1.15268e-05
 Reference value :  1.15283e-05
 Reference value :  1.15304e-05
 Reference value :  1.15331e-05
 Reference value :  1.15359e-05
 Reference value :  1.15407e-05
 Reference value :  1.15472e-05
 Reference value :  1.15573e-05
 Reference value :  1.15737e-05
 Reference value :  1.16018e-05
 Reference value :  1.16582e-05
 Reference value :  1.17022e-05
 Reference value :  1.17392e-05
 Reference value :  1.17501e-05
 Reference value :  1.17501e-05
 Reference value :  1.17501e-05
 Reference value :  1.17502e-05
 Reference value :  1.17502e-05
 Reference value :  1.17502e-05
 Reference value :  1.17502e-05
 Reference value :  1.17502e-05
 Reference value :  1.17502e-05
 Reference value :  1.17502e-05
 Reference value :  1.17502e-05
 Reference value :  1.17503e-05
 Reference value :  1.17504e-05
 Reference value :  1.17506e-05
 Reference value :  1.17509e-05
 Reference value :  1.17516e-05
 Reference value :  1.17522e-05
 Reference value :  1.17528e-05
 Reference value :  1.17535e-05
 Reference value :  1.17544e-05
 Reference value :  1.17551e-05
 Reference value :  1.17559e-05
 Reference value :  1.17568e-05
 Reference value :  1.17577e-05
 Reference value :  1.17588e-05
 Reference value :  1.17607e-05
 Reference value :  1.17632e-05
 Reference value :  1.17661e-05
 Reference value :  1.17705e-05
 Reference value :  1.17768e-05
 Reference value :  1.17894e-05
 Reference value :  1.18147e-05
 Reference value :  1.18652e-05
 Reference value :  1.19663e-05
 Reference value :  1.20000e-05
 Reference value :  1.20000e-05
 Reference value :  1.20000e-05
 Reference value :  1.20001e-05
 Reference value :  1.20001e-05
 Reference value :  1.20001e-05
 Reference value :  1.20001e-05
 Reference value :  1.20001e-05
 Reference value :  1.20002e-05
 Reference value :  1.20002e-05
 Reference value :  1.20004e-05
 Reference value :  1.20006e-05
 Reference value :  1.20009e-05
 Reference value :  1.20014e-05
 Reference value :  1.20020e-05
 Reference value :  1.20026e-05
 Reference value :  1.20033e-05
 Reference value :  1.20040e-05
 Reference value :  1.20050e-05
 Reference value :  1.20058e-05
 Reference value :  1.20068e-05
 Reference value :  1.20080e-05
 Reference value :  1.20093e-05
 Reference value :  1.20105e-05
 Reference value :  1.20118e-05
 Reference value :  1.20135e-05
 Reference value :  1.20149e-05
 Reference value :  1.20165e-05
 Reference value :  1.20181e-05
 Reference value :  1.20199e-05
 Reference value :  1.20234e-05
 Reference value :  1.20285e-05
 Reference value :  1.20386e-05
 Reference value :  1.20589e-05
 Reference value :  1.20994e-05
 Reference value :  1.21804e-05
 Reference value :  1.22501e-05
 Reference value :  1.22501e-05
 Reference value :  1.22501e-05
 Reference value :  1.22502e-05
 Reference value :  1.22502e-05
 Reference value :  1.22502e-05
 Reference value :  1.22502e-05
 Reference value :  1.22502e-05
 Reference value :  1.22502e-05
 Reference value :  1.22502e-05
 Reference value :  1.22502e-05
 Reference value :  1.22503e-05
 Reference value :  1.22504e-05
 Reference value :  1.22506e-05
 Reference value :  1.22509e-05
 Reference value :  1.22516e-05
 Reference value :  1.22522e-05
 Reference value :  1.22528e-05
 Reference value :  1.22535e-05
 Reference value :  1.22544e-05
 Reference value :  1.22551e-05
 Reference value :  1.22560e-05
 Reference value :  1.22567e-05
 Reference value :  1.22575e-05
 Reference value :  1.22585e-05
 Reference value :  1.22596e-05
 Reference value :  1.22607e-05
 Reference value :  1.22625e-05
 Reference value :  1.22642e-05
 Reference value :  1.22671e-05
 Reference value :  1.22704e-05
 Reference value :  1.22750e-05
 Reference value :  1.22836e-05
 Reference value :  1.22948e-05
 Reference value :  1.23158e-05
 Reference value :  1.23555e-05
 Reference value :  1.24213e-05
 Reference value :  1.25000e-05
 Reference value :  1.25000e-05
 Reference value :  1.25000e-05
 Reference value :  1.25001e-05
 Reference value :  1.25001e-05
 Reference value :  1.25001e-05
 Reference value :  1.25001e-05
 Reference value :  1.25001e-05
 Reference value :  1.25002e-05
 Reference value :  1.25002e-05
 Reference value :  1.25004e-05
 Reference value :  1.25006e-05
 Reference value :  1.25009e-05
 Reference value :  1.25014e-05
 Reference value :  1.25020e-05
 Reference value :  1.25026e-05
 Reference value :  1.25034e-05
 Reference value :  1.25041e-05
 Reference value :  1.25050e-05
 Reference value :  1.25057e-05
 Reference value :  1.25065e-05
 Reference value :  1.25072e-05
 Reference value :  1.25080e-05
 Reference value :  1.25089e-05
 Reference value :  1.25099e-05
 Reference value :  1.25112e-05
 Reference value :  1.25132e-05
 Reference value :  1.25146e-05
 Reference value :  1.25161e-05
 Reference value :  1.25177e-05
 Reference value :  1.25194e-05
 Reference value :  1.25210e-05
 Reference value :  1.25223e-05
 Reference value :  1.25238e-05
 Reference value :  1.25251e-05
 Reference value :  1.25266e-05
 Reference value :  1.25281e-05
 Reference value :  1.25297e-05
 Reference value :  1.25324e-05
 Reference value :  1.25353e-05
 Reference value :  1.25411e-05
 Reference value :  1.25519e-05
 Reference value :  1.25686e-05
 Reference value :  1.25982e-05
 Reference value :  1.26255e-05
 Reference value :  1.26507e-05
 Reference value :  1.26673e-05
 Reference value :  1.26836e-05
 Reference value :  1.26990e-05
 Reference value :  1.27172e-05
 Reference value :  1.27463e-05
 Reference value :  1.27501e-05
 Reference value :  1.27501e-05
 Reference value :  1.27501e-05
 Reference value :  1.27502e-05
 Reference value :  1.27502e-05
 Reference value :  1.27502e-05
 Reference value :  1.27502e-05
 Reference value :  1.27502e-05
 Reference value :  1.27502e-05
 Reference value :  1.27502e-05
 Reference value :  1.27502e-05
 Reference value :  1.27503e-05
 Reference value :  1.27504e-05
 Reference value :  1.27506e-05
 Reference value :  1.27509e-05
 Reference value :  1.27516e-05
 Reference value :  1.27522e-05
 Reference value :  1.27528e-05
 Reference value :  1.27535e-05
 Reference value :  1.27544e-05
 Reference value :  1.27551e-05
 Reference value :  1.27559e-05
 Reference value :  1.27568e-05
 Reference value :  1.27577e-05
 Reference value :  1.27588e-05
 Reference value :  1.27607e-05
 Reference value :  1.27632e-05
 Reference value :  1.27662e-05
 Reference value :  1.27705e-05
 Reference value :  1.27768e-05
 Reference value :  1.27894e-05
 Reference value :  1.28146e-05
 Reference value :  1.28650e-05
 Reference value :  1.29658e-05
 Reference value :  1.30000e-05
 Reference value :  1.30000e-05
 Reference value :  1.30000e-05
 Reference value :  1.30001e-05
 Reference value :  1.30001e-05
 Reference value :  1.30001e-05
 Reference value :  1.30001e-05
 Reference value :  1.30001e-05
 Reference value :  1.30002e-05
 Reference value :  1.30002e-05
 Reference value :  1.30004e-05
 Reference value :  1.30006e-05
 Reference value :  1.30009e-05
 Reference value :  1.30014e-05
 Reference value :  1.30020e-05
 Reference value :  1.30026e-05
 Reference value :  1.30033e-05
 Reference value :  1.30040e-05
 Reference value :  1.30049e-05
 Reference value :  1.30058e-05
 Reference value :  1.30068e-05
 Reference value :  1.30080e-05
 Reference value :  1.30092e-05
 Reference value :  1.30104e-05
 Reference value :  1.30116e-05
 Reference value :  1.30133e-05
 Reference value :  1.30147e-05
 Reference value :  1.30162e-05
 Reference value :  1.30179e-05
 Reference value :  1.30197e-05
 Reference value :  1.30231e-05
 Reference value :  1.30281e-05
 Reference value :  1.30381e-05
 Reference value :  1.30570e-05
 Reference value :  1.30936e-05
 Reference value :  1.31668e-05
 Reference value :  1.32501e-05
 Reference value :  1.32501e-05
 Reference value :  1.32501e-05
 Reference value :  1.32502e-05
 Reference value :  1.32502e-05
 Reference value :  1.32502e-05
 Reference value :  1.32502e-05
 Reference value :  1.32502e-05
 Reference value :  1.32502e-05
 Reference value :  1.32502e-05
 Reference value :  1.32502e-05
 Reference value :  1.32503e-05
 Reference value :  1.32504e-05
 Reference value :  1.32506e-05
 Reference value :  1.32509e-05
 Reference value :  1.32515e-05
 Reference value :  1.32521e-05
 Reference value :  1.32528e-05
 Reference value :  1.32535e-05
 Reference value :  1.32544e-05
 Reference value :  1.32551e-05
 Reference value :  1.32560e-05
 Reference value :  1.32567e-05
 Reference value :  1.32575e-05
 Reference value :  1.32585e-05
 Reference value :  1.32597e-05
 Reference value :  1.32608e-05
 Reference value :  1.32625e-05
 Reference value :  1.32646e-05
 Reference value :  1.32672e-05
 Reference value :  1.32708e-05
 Reference value :  1.32753e-05
 Reference value :  1.32843e-05
 Reference value :  1.32986e-05
 Reference value :  1.33271e-05
 Reference value :  1.33842e-05
 Reference value :  1.34984e-05
 Reference value :  1.35000e-05
 Reference value :  1.35000e-05
 Reference value :  1.35000e-05
 Reference value :  1.35001e-05
 Reference value :  1.35001e-05
 Reference value :  1.35001e-05
 Reference value :  1.35001e-05
 Reference value :  1.35001e-05
 Reference value :  1.35002e-05
 Reference value :  1.35002e-05
 Reference value :  1.35004e-05
 Reference value :  1.35006e-05
 Reference value :  1.35009e-05
 Reference value :  1.35014e-05
 Reference value :  1.35020e-05
 Reference value :  1.35026e-05
 Reference value :  1.35034e-05
 Reference value :  1.35041e-05
 Reference value :  1.35050e-05
 Reference value :  1.35057e-05
 Reference value :  1.35065e-05
 Reference value :  1.35072e-05
 Reference value :  1.35080e-05
 Reference value :  1.35089e-05
 Reference value :  1.35100e-05
 Reference value :  1.35113e-05
 Reference value :  1.35133e-05
 Reference value :  1.35147e-05
 Reference value :  1.35162e-05
 Reference value :  1.35178e-05
 Reference value :  1.35195e-05
 Reference value :  1.35212e-05
 Reference value :  1.35225e-05
 Reference value :  1.35240e-05
 Reference value :  1.35252e-05
 Reference value :  1.35267e-05
 Reference value :  1.35282e-05
 Reference value :  1.35297e-05
 Reference value :  1.35323e-05
 Reference value :  1.35353e-05
 Reference value :  1.35413e-05
 Reference value :  1.35523e-05
 Reference value :  1.35661e-05
 Reference value :  1.35795e-05
 Reference value :  1.35952e-05
 Reference value :  1.36125e-05
 Reference value :  1.36305e-05
 Reference value :  1.36517e-05
 Reference value :  1.36819e-05
 Reference value :  1.37197e-05
 Reference value :  1.37467e-05
 Reference value :  1.37501e-05
 Reference value :  1.37501e-05
 Reference value :  1.37501e-05
 Reference value :  1.37502e-05
 Reference value :  1.37502e-05
 Reference value :  1.37502e-05
 Reference value :  1.37502e-05
 Reference value :  1.37502e-05
 Reference value :  1.37502e-05
 Reference value :  1.37502e-05
 Reference value :  1.37502e-05
 Reference value :  1.37503e-05
 Reference value :  1.37504e-05
 Reference value :  1.37506e-05
 Reference value :  1.37509e-05
 Reference value :  1.37516e-05
 Reference value :  1.37522e-05
 Reference value :  1.37528e-05
 Reference value :  1.37535e-05
 Reference value :  1.37544e-05
 Reference value :  1.37551e-05
 Reference value :  1.37560e-05
 Reference value :  1.37568e-05
 Reference value :  1.37577e-05
 Reference value :  1.37589e-05
 Reference value :  1.37607e-05
 Reference value :  1.37632e-05
 Reference value :  1.37662e-05
 Reference value :  1.37705e-05
 Reference value :  1.37771e-05
 Reference value :  1.37902e-05
 Reference value :  1.38164e-05
 Reference value :  1.38688e-05
 Reference value :  1.39737e-05
 Reference value :  1.40000e-05
 Reference value :  1.40000e-05
 Reference value :  1.40000e-05
 Reference value :  1.40001e-05
 Reference value :  1.40001e-05
 Reference value :  1.40001e-05
 Reference value :  1.40001e-05
 Reference value :  1.40001e-05
 Reference value :  1.40002e-05
 Reference value :  1.40002e-05
 Reference value :  1.40004e-05
 Reference value :  1.40006e-05
 Reference value :  1.40009e-05
 Reference value :  1.40014e-05
 Reference value :  1.40020e-05
 Reference value :  1.40026e-05
 Reference value :  1.40033e-05
 Reference value :  1.40040e-05
 Reference value :  1.40049e-05
 Reference value :  1.40059e-05
 Reference value :  1.40069e-05
 Reference value :  1.40081e-05
 Reference value :  1.40093e-05
 Reference value :  1.40107e-05
 Reference value :  1.40120e-05
 Reference value :  1.40136e-05
 Reference value :  1.40153e-05
 Reference value :  1.40171e-05
 Reference value :  1.40192e-05
 Reference value :  1.40227e-05
 Reference value :  1.40278e-05
 Reference value :  1.40371e-05
 Reference value :  1.40542e-05
 Reference value :  1.40850e-05
 Reference value :  1.41451e-05
 Reference value :  1.42501e-05
 Reference value :  1.42501e-05
 Reference value :  1.42501e-05
 Reference value :  1.42502e-05
 Reference value :  1.42502e-05
 Reference value :  1.42502e-05
 Reference value :  1.42502e-05
 Reference value :  1.42502e-05
 Reference value :  1.42502e-05
 Reference value :  1.42502e-05
 Reference value :  1.42502e-05
 Reference value :  1.42503e-05
 Reference value :  1.42504e-05
 Reference value :  1.42506e-05
 Reference value :  1.42509e-05
 Reference value :  1.42516e-05
 Reference value :  1.42522e-05
 Reference value :  1.42528e-05
 Reference value :  1.42535e-05
 Reference value :  1.42544e-05
 Reference value :  1.42551e-05
 Reference value :  1.42560e-05
 Reference value :  1.42567e-05
 Reference value :  1.42575e-05
 Reference value :  1.42585e-05
 Reference value :  1.42596e-05
 Reference value :  1.42607e-05
 Reference value :  1.42624e-05
 Reference value :  1.42642e-05
 Reference value :  1.42671e-05
 Reference value :  1.42704e-05
 Reference value :  1.42750e-05
 Reference value :  1.42842e-05
 Reference value :  1.42962e-05
 Reference value :  1.43199e-05
 Reference value :  1.43653e-05
 Reference value :  1.44534e-05
 Reference value :  1.45000e-05
 Reference value :  1.45000e-05
 Reference value :  1.45000e-05
 Reference value :  1.45001e-05
 Reference value :  1.45001e-05
 Reference value :  1.45001e-05
 Reference value :  1.45001e-05
 Reference value :  1.45001e-05
 Reference value :  1.45002e-05
 Reference value :  1.45002e-05
 Reference value :  1.45004e-05
 Reference value :  1.45006e-05
 Reference value :  1.45009e-05
 Reference value :  1.45014e-05
 Reference value :  1.45020e-05
 Reference value :  1.45026e-05
 Reference value :  1.45034e-05
 Reference value :  1.45041e-05
 Reference value :  1.45050e-05
 Reference value :  1.45057e-05
 Reference value :  1.45065e-05
 Reference value :  1.45072e-05
 Reference value :  1.45081e-05
 Reference value :  1.45090e-05
 Reference value :  1.45100e-05
 Reference value :  1.45116e-05
 Reference value :  1.45135e-05
 Reference value :  1.45149e-05
 Reference value :  1.45164e-05
 Reference value :  1.45181e-05
 Reference value :  1.45200e-05
 Reference value :  1.45218e-05
 Reference value :  1.45234e-05
 Reference value :  1.45251e-05
 Reference value :  1.45265e-05
 Reference value :  1.45280e-05
 Reference value :  1.45298e-05
 Reference value :  1.45323e-05
 Reference value :  1.45348e-05
 Reference value :  1.45391e-05
 Reference value :  1.45455e-05
 Reference value :  1.45531e-05
 Reference value :  1.45615e-05
 Reference value :  1.45723e-05
 Reference value :  1.45898e-05
 Reference value :  1.46061e-05
 Reference value :  1.46263e-05
 Reference value :  1.46582e-05
 Reference value :  1.46917e-05
 Reference value :  1.47501e-05
 Reference value :  1.47501e-05
 Reference value :  1.47501e-05
 Reference value :  1.47502e-05
 Reference value :  1.47502e-05
 Reference value :  1.47502e-05
 Reference value :  1.47502e-05
 Reference value :  1.47502e-05
 Reference value :  1.47502e-05
 Reference value :  1.47502e-05
 Reference value :  1.47502e-05
 Reference value :  1.47503e-05
 Reference value :  1.47504e-05
 Reference value :  1.47506e-05
 Reference value :  1.47509e-05
 Reference value :  1.47516e-05
 Reference value :  1.47522e-05
 Reference value :  1.47528e-05
 Reference value :  1.47535e-05
 Reference value :  1.47544e-05
 Reference value :  1.47551e-05
 Reference value :  1.47559e-05
 Reference value :  1.47568e-05
 Reference value :  1.47577e-05
 Reference value :  1.47588e-05
 Reference value :  1.47607e-05
 Reference value :  1.47632e-05
 Reference value :  1.47661e-05
 Reference value :  1.47705e-05
 Reference value :  1.47768e-05
 Reference value :  1.47893e-05
 Reference value :  1.48145e-05
 Reference value :  1.48648e-05
 Reference value :  1.49654e-05
 Reference value :  1.50000e-05
 Reference value :  1.50000e-05
 Reference value :  1.50000e-05
 Reference value :  1.50001e-05
 Reference value :  1.50001e-05
 Reference value :  1.50001e-05
 Reference value :  1.50001e-05
 Reference value :  1.50001e-05
 Reference value :  1.50002e-05
 Reference value :  1.50002e-05
 Reference value :  1.50004e-05
 Reference value :  1.50006e-05
 Reference value :  1.50009e-05
 Reference value :  1.50014e-05
 Reference value :  1.50020e-05
 Reference value :  1.50026e-05
 Reference value :  1.50033e-05
 Reference value :  1.50040e-05
 Reference value :  1.50049e-05
 Reference value :  1.50058e-05
 Reference value :  1.50068e-05
 Reference value :  1.50080e-05
 Reference value :  1.50093e-05
 Reference value :  1.50105e-05
 Reference value :  1.50118e-05
 Reference value :  1.50136e-05
 Reference value :  1.50152e-05
 Reference value :  1.50169e-05
 Reference value :  1.50189e-05
 Reference value :  1.50211e-05
 Reference value :  1.50248e-05
 Reference value :  1.50303e-05
 Reference value :  1.50397e-05
 Reference value :  1.50567e-05
 Reference value :  1.50867e-05
 Reference value :  1.51430e-05
 Reference value :  1.52459e-05
 Reference value :  1.52501e-05
 Reference value :  1.52501e-05
 Reference value :  1.52501e-05
 Reference value :  1.52502e-05
 Reference value :  1.52502e-05
 Reference value :  1.52502e-05
 Reference value :  1.52502e-05
 Reference value :  1.52502e-05
 Reference value :  1.52502e-05
 Reference value :  1.52502e-05
 Reference value :  1.52502e-05
 Reference value :  1.52503e-05
 Reference value :  1.52504e-05
 Reference value :  1.52506e-05
 Reference value :  1.52509e-05
 Reference value :  1.52516e-05
 Reference value :  1.52522e-05
 Reference value :  1.52528e-05
 Reference value :  1.52535e-05
 Reference value :  1.52544e-05
 Reference value :  1.52551e-05
 Reference value :  1.52560e-05
 Reference value :  1.52567e-05
 Reference value :  1.52574e-05
 Reference value :  1.52585e-05
 Reference value :  1.52596e-05
 Reference value :  1.52606e-05
 Reference value :  1.52624e-05
 Reference value :  1.52640e-05
 Reference value :  1.52671e-05
 Reference value :  1.52702e-05
 Reference value :  1.52749e-05
 Reference value :  1.52829e-05
 Reference value :  1.52935e-05
 Reference value :  1.53118e-05
 Reference value :  1.53462e-05
 Reference value :  1.54008e-05
 Reference value :  1.55000e-05
 Reference value :  1.55015e-05
 Reference value :  1.55046e-05
 Reference value :  1.55062e-05
 Reference value :  1.55077e-05
 Reference value :  1.55089e-05
 Reference value :  1.55101e-05
 Reference value :  1.55115e-05
 Reference value :  1.55129e-05
 Reference value :  1.55147e-05
 Reference value :  1.55162e-05
 Reference value :  1.55177e-05
 Reference value :  1.55193e-05
 Reference value :  1.55210e-05
 Reference value :  1.55226e-05
 Reference value :  1.55239e-05
 Reference value :  1.55252e-05
 Reference value :  1.55264e-05
 Reference value :  1.55277e-05
 Reference value :  1.55295e-05
 Reference value :  1.55310e-05
 Reference value :  1.55338e-05
 Reference value :  1.55370e-05
 Reference value :  1.55421e-05
 Reference value :  1.55469e-05
 Reference value :  1.55548e-05
 Reference value :  1.55672e-05
 Reference value :  1.55867e-05
 Reference value :  1.56092e-05
 Reference value :  1.56449e-05
 Reference value :  1.56840e-05
 Reference value :  1.57232e-05
 Reference value :  1.57501e-05
 Reference value :  1.57501e-05
 Reference value :  1.57501e-05
 Reference value :  1.57502e-05
 Reference value :  1.57502e-05
 Reference value :  1.57502e-05
 Reference value :  1.57502e-05
 Reference value :  1.57502e-05
 Reference value :  1.57502e-05
 Reference value :  1.57502e-05
 Reference value :  1.57502e-05
 Reference value :  1.57503e-05
 Reference value :  1.57504e-05
 Reference value :  1.57506e-05
 Reference value :  1.57509e-05
 Reference value :  1.57516e-05
 Reference value :  1.57522e-05
 Reference value :  1.57528e-05
 Reference value :  1.57535e-05
 Reference value :  1.57544e-05
 Reference value :  1.57551e-05
 Reference value :  1.57559e-05
 Reference value :  1.57568e-05
 Reference value :  1.57577e-05
 Reference value :  1.57588e-05
 Reference value :  1.57608e-05
 Reference value :  1.57632e-05
 Reference value :  1.57663e-05
 Reference value :  1.57706e-05
 Reference value :  1.57773e-05
 Reference value :  1.57908e-05
 Reference value :  1.58176e-05
 Reference value :  1.58714e-05
 Reference value :  1.59789e-05
 Reference value :  1.60000e-05
 Reference value :  1.60000e-05
 Reference value :  1.60000e-05
 Reference value :  1.60001e-05
 Reference value :  1.60001e-05
 Reference value :  1.60001e-05
 Reference value :  1.60001e-05
 Reference value :  1.60001e-05
 Reference value :  1.60002e-05
 Reference value :  1.60002e-05
 Reference value :  1.60004e-05
 Reference value :  1.60006e-05
[...]
 Reference value :  1.74386e-04
 Reference value :  1.74418e-04
 Reference value :  1.74457e-04
 Reference value :  1.74500e-04
 Reference value :  1.74500e-04
 Reference value :  1.74500e-04
 Reference value :  1.74500e-04
 Reference value :  1.74500e-04
 Reference value :  1.74500e-04
 Reference value :  1.74500e-04
 Reference value :  1.74500e-04
 Reference value :  1.74500e-04
 Reference value :  1.74500e-04
 Reference value :  1.74500e-04
 Reference value :  1.74501e-04
 Reference value :  1.74501e-04
 Reference value :  1.74501e-04
 Reference value :  1.74502e-04
 Reference value :  1.74503e-04
 Reference value :  1.74503e-04
 Reference value :  1.74504e-04
 Reference value :  1.74505e-04
 Reference value :  1.74506e-04
 Reference value :  1.74507e-04
 Reference value :  1.74508e-04
 Reference value :  1.74509e-04
 Reference value :  1.74510e-04
 Reference value :  1.74512e-04
 Reference value :  1.74513e-04
 Reference value :  1.74515e-04
 Reference value :  1.74516e-04
 Reference value :  1.74518e-04
 Reference value :  1.74520e-04
 Reference value :  1.74523e-04
 Reference value :  1.74528e-04
 Reference value :  1.74538e-04
 Reference value :  1.74557e-04
 Reference value :  1.74594e-04
 Reference value :  1.74667e-04
 Reference value :  1.74750e-04
 Reference value :  1.74750e-04
 Reference value :  1.74750e-04
 Reference value :  1.74750e-04
 Reference value :  1.74750e-04
 Reference value :  1.74750e-04
 Reference value :  1.74750e-04
 Reference value :  1.74750e-04
 Reference value :  1.74750e-04
 Reference value :  1.74750e-04
 Reference value :  1.74750e-04
 Reference value :  1.74750e-04
 Reference value :  1.74750e-04
 Reference value :  1.74751e-04
 Reference value :  1.74751e-04
 Reference value :  1.74752e-04
 Reference value :  1.74752e-04
 Reference value :  1.74753e-04
 Reference value :  1.74753e-04
 Reference value :  1.74754e-04
 Reference value :  1.74755e-04
 Reference value :  1.74756e-04
 Reference value :  1.74757e-04
 Reference value :  1.74757e-04
 Reference value :  1.74759e-04
 Reference value :  1.74760e-04
 Reference value :  1.74761e-04
 Reference value :  1.74762e-04
 Reference value :  1.74765e-04
 Reference value :  1.74767e-04
 Reference value :  1.74771e-04
 Reference value :  1.74775e-04
 Reference value :  1.74784e-04
 Reference value :  1.74798e-04
 Reference value :  1.74826e-04
 Reference value :  1.74882e-04
 Reference value :  1.74993e-04
 Reference value :  1.75000e-04
 Reference value :  1.75000e-04
 Reference value :  1.75000e-04
 Reference value :  1.75000e-04
 Reference value :  1.75000e-04
 Reference value :  1.75000e-04
 Reference value :  1.75000e-04
 Reference value :  1.75000e-04
 Reference value :  1.75000e-04
 Reference value :  1.75000e-04
 Reference value :  1.75000e-04
 Reference value :  1.75001e-04
 Reference value :  1.75001e-04
 Reference value :  1.75001e-04
 Reference value :  1.75002e-04
 Reference value :  1.75003e-04
 Reference value :  1.75003e-04
 Reference value :  1.75004e-04
 Reference value :  1.75005e-04
 Reference value :  1.75006e-04
 Reference value :  1.75006e-04
 Reference value :  1.75007e-04
 Reference value :  1.75008e-04
 Reference value :  1.75009e-04
 Reference value :  1.75010e-04
 Reference value :  1.75011e-04
 Reference value :  1.75013e-04
 Reference value :  1.75015e-04
 Reference value :  1.75016e-04
 Reference value :  1.75018e-04
 Reference value :  1.75019e-04
 Reference value :  1.75021e-04
 Reference value :  1.75023e-04
 Reference value :  1.75024e-04
 Reference value :  1.75025e-04
 Reference value :  1.75027e-04
 Reference value :  1.75028e-04
 Reference value :  1.75030e-04
 Reference value :  1.75032e-04
 Reference value :  1.75035e-04
 Reference value :  1.75040e-04
 Reference value :  1.75047e-04
 Reference value :  1.75053e-04
 Reference value :  1.75057e-04
 Reference value :  1.75061e-04
 Reference value :  1.75065e-04
 Reference value :  1.75071e-04
 Reference value :  1.75079e-04
 Reference value :  1.75089e-04
 Reference value :  1.75102e-04
 Reference value :  1.75122e-04
 Reference value :  1.75149e-04
 Reference value :  1.75187e-04
 Reference value :  1.75243e-04
 Reference value :  1.75250e-04
 Reference value :  1.75250e-04
 Reference value :  1.75250e-04
 Reference value :  1.75250e-04
 Reference value :  1.75250e-04
 Reference value :  1.75250e-04
 Reference value :  1.75250e-04
 Reference value :  1.75250e-04
 Reference value :  1.75250e-04
 Reference value :  1.75250e-04
 Reference value :  1.75250e-04
 Reference value :  1.75250e-04
 Reference value :  1.75250e-04
 Reference value :  1.75251e-04
 Reference value :  1.75251e-04
 Reference value :  1.75252e-04
 Reference value :  1.75252e-04
 Reference value :  1.75253e-04
 Reference value :  1.75253e-04
 Reference value :  1.75254e-04
 Reference value :  1.75255e-04
 Reference value :  1.75256e-04
 Reference value :  1.75257e-04
 Reference value :  1.75258e-04
 Reference value :  1.75259e-04
 Reference value :  1.75261e-04
 Reference value :  1.75263e-04
 Reference value :  1.75266e-04
 Reference value :  1.75271e-04
 Reference value :  1.75278e-04
 Reference value :  1.75292e-04
 Reference value :  1.75318e-04
 Reference value :  1.75371e-04
 Reference value :  1.75476e-04
 Reference value :  1.75500e-04
 Reference value :  1.75500e-04
 Reference value :  1.75500e-04
 Reference value :  1.75500e-04
 Reference value :  1.75500e-04
 Reference value :  1.75500e-04
 Reference value :  1.75500e-04
 Reference value :  1.75500e-04
 Reference value :  1.75500e-04
 Reference value :  1.75500e-04
 Reference value :  1.75500e-04
 Reference value :  1.75501e-04
 Reference value :  1.75501e-04
 Reference value :  1.75501e-04
 Reference value :  1.75502e-04
 Reference value :  1.75503e-04
 Reference value :  1.75503e-04
 Reference value :  1.75504e-04
 Reference value :  1.75505e-04
 Reference value :  1.75506e-04
 Reference value :  1.75507e-04
 Reference value :  1.75508e-04
 Reference value :  1.75509e-04
 Reference value :  1.75510e-04
 Reference value :  1.75512e-04
 Reference value :  1.75513e-04
 Reference value :  1.75515e-04
 Reference value :  1.75516e-04
 Reference value :  1.75518e-04
 Reference value :  1.75520e-04
 Reference value :  1.75524e-04
 Reference value :  1.75529e-04
 Reference value :  1.75538e-04
 Reference value :  1.75556e-04
 Reference value :  1.75590e-04
 Reference value :  1.75656e-04
 Reference value :  1.75750e-04
 Reference value :  1.75750e-04
 Reference value :  1.75750e-04
 Reference value :  1.75750e-04
 Reference value :  1.75750e-04
 Reference value :  1.75750e-04
 Reference value :  1.75750e-04
 Reference value :  1.75750e-04
 Reference value :  1.75750e-04
 Reference value :  1.75750e-04
 Reference value :  1.75750e-04
 Reference value :  1.75750e-04
 Reference value :  1.75750e-04
 Reference value :  1.75751e-04
 Reference value :  1.75751e-04
 Reference value :  1.75752e-04
 Reference value :  1.75752e-04
 Reference value :  1.75753e-04
 Reference value :  1.75753e-04
 Reference value :  1.75754e-04
 Reference value :  1.75755e-04
 Reference value :  1.75756e-04
 Reference value :  1.75757e-04
 Reference value :  1.75758e-04
 Reference value :  1.75759e-04
 Reference value :  1.75760e-04
 Reference value :  1.75762e-04
 Reference value :  1.75764e-04
 Reference value :  1.75768e-04
 Reference value :  1.75773e-04
 Reference value :  1.75781e-04
 Reference value :  1.75799e-04
 Reference value :  1.75834e-04
 Reference value :  1.75903e-04
 Reference value :  1.76000e-04
 Reference value :  1.76000e-04
 Reference value :  1.76000e-04
 Reference value :  1.76000e-04
 Reference value :  1.76000e-04
 Reference value :  1.76000e-04
 Reference value :  1.76000e-04
 Reference value :  1.76000e-04
 Reference value :  1.76000e-04
 Reference value :  1.76000e-04
 Reference value :  1.76000e-04
 Reference value :  1.76001e-04
 Reference value :  1.76001e-04
 Reference value :  1.76001e-04
 Reference value :  1.76002e-04
 Reference value :  1.76003e-04
 Reference value :  1.76003e-04
 Reference value :  1.76004e-04
 Reference value :  1.76005e-04
 Reference value :  1.76006e-04
 Reference value :  1.76007e-04
 Reference value :  1.76007e-04
 Reference value :  1.76008e-04
 Reference value :  1.76009e-04
 Reference value :  1.76010e-04
 Reference value :  1.76012e-04
 Reference value :  1.76014e-04
 Reference value :  1.76017e-04
 Reference value :  1.76019e-04
 Reference value :  1.76021e-04
 Reference value :  1.76023e-04
 Reference value :  1.76025e-04
 Reference value :  1.76026e-04
 Reference value :  1.76027e-04
 Reference value :  1.76029e-04
 Reference value :  1.76031e-04
 Reference value :  1.76034e-04
 Reference value :  1.76037e-04
 Reference value :  1.76043e-04
 Reference value :  1.76049e-04
 Reference value :  1.76056e-04
 Reference value :  1.76063e-04
 Reference value :  1.76069e-04
 Reference value :  1.76074e-04
 Reference value :  1.76081e-04
 Reference value :  1.76088e-04
 Reference value :  1.76096e-04
 Reference value :  1.76104e-04
 Reference value :  1.76112e-04
 Reference value :  1.76129e-04
 Reference value :  1.76146e-04
 Reference value :  1.76176e-04
 Reference value :  1.76221e-04
 Reference value :  1.76250e-04
 Reference value :  1.76250e-04
 Reference value :  1.76250e-04
 Reference value :  1.76250e-04
 Reference value :  1.76250e-04
 Reference value :  1.76250e-04
 Reference value :  1.76250e-04
 Reference value :  1.76250e-04
 Reference value :  1.76250e-04
 Reference value :  1.76250e-04
 Reference value :  1.76250e-04
 Reference value :  1.76250e-04
 Reference value :  1.76250e-04
 Reference value :  1.76251e-04
 Reference value :  1.76251e-04
 Reference value :  1.76252e-04
 Reference value :  1.76252e-04
 Reference value :  1.76253e-04
 Reference value :  1.76254e-04
 Reference value :  1.76254e-04
 Reference value :  1.76255e-04
 Reference value :  1.76256e-04
 Reference value :  1.76257e-04
 Reference value :  1.76258e-04
 Reference value :  1.76259e-04
 Reference value :  1.76261e-04
 Reference value :  1.76263e-04
 Reference value :  1.76266e-04
 Reference value :  1.76271e-04
 Reference value :  1.76277e-04
 Reference value :  1.76290e-04
 Reference value :  1.76316e-04
 Reference value :  1.76367e-04
 Reference value :  1.76470e-04
 Reference value :  1.76500e-04
 Reference value :  1.76500e-04
 Reference value :  1.76500e-04
 Reference value :  1.76500e-04
 Reference value :  1.76500e-04
 Reference value :  1.76500e-04
 Reference value :  1.76500e-04
 Reference value :  1.76500e-04
 Reference value :  1.76500e-04
 Reference value :  1.76500e-04
 Reference value :  1.76500e-04
 Reference value :  1.76501e-04
 Reference value :  1.76501e-04
 Reference value :  1.76501e-04
 Reference value :  1.76502e-04
 Reference value :  1.76503e-04
 Reference value :  1.76503e-04
 Reference value :  1.76504e-04
 Reference value :  1.76505e-04
 Reference value :  1.76506e-04
 Reference value :  1.76507e-04
 Reference value :  1.76508e-04
 Reference value :  1.76509e-04
 Reference value :  1.76511e-04
 Reference value :  1.76512e-04
 Reference value :  1.76514e-04
 Reference value :  1.76515e-04
 Reference value :  1.76517e-04
 Reference value :  1.76519e-04
 Reference value :  1.76521e-04
 Reference value :  1.76525e-04
 Reference value :  1.76530e-04
 Reference value :  1.76539e-04
 Reference value :  1.76556e-04
 Reference value :  1.76586e-04
 Reference value :  1.76642e-04
 Reference value :  1.76744e-04
 Reference value :  1.76750e-04
 Reference value :  1.76750e-04
 Reference value :  1.76750e-04
 Reference value :  1.76750e-04
 Reference value :  1.76750e-04
 Reference value :  1.76750e-04
 Reference value :  1.76750e-04
 Reference value :  1.76750e-04
 Reference value :  1.76750e-04
 Reference value :  1.76750e-04
 Reference value :  1.76750e-04
 Reference value :  1.76750e-04
 Reference value :  1.76750e-04
 Reference value :  1.76751e-04
 Reference value :  1.76751e-04
 Reference value :  1.76752e-04
 Reference value :  1.76752e-04
 Reference value :  1.76753e-04
 Reference value :  1.76754e-04
 Reference value :  1.76754e-04
 Reference value :  1.76755e-04
 Reference value :  1.76756e-04
 Reference value :  1.76757e-04
 Reference value :  1.76757e-04
 Reference value :  1.76758e-04
 Reference value :  1.76760e-04
 Reference value :  1.76761e-04
 Reference value :  1.76762e-04
 Reference value :  1.76764e-04
 Reference value :  1.76767e-04
 Reference value :  1.76770e-04
 Reference value :  1.76775e-04
 Reference value :  1.76784e-04
 Reference value :  1.76796e-04
 Reference value :  1.76819e-04
 Reference value :  1.76862e-04
 Reference value :  1.76947e-04
 Reference value :  1.77000e-04
 Reference value :  1.77000e-04
 Reference value :  1.77000e-04
 Reference value :  1.77000e-04
 Reference value :  1.77000e-04
 Reference value :  1.77000e-04
 Reference value :  1.77000e-04
 Reference value :  1.77000e-04
 Reference value :  1.77000e-04
 Reference value :  1.77000e-04
 Reference value :  1.77000e-04
 Reference value :  1.77001e-04
 Reference value :  1.77001e-04
 Reference value :  1.77001e-04
 Reference value :  1.77002e-04
 Reference value :  1.77003e-04
 Reference value :  1.77003e-04
 Reference value :  1.77004e-04
 Reference value :  1.77005e-04
 Reference value :  1.77006e-04
 Reference value :  1.77006e-04
 Reference value :  1.77007e-04
 Reference value :  1.77008e-04
 Reference value :  1.77009e-04
 Reference value :  1.77010e-04
 Reference value :  1.77011e-04
 Reference value :  1.77013e-04
 Reference value :  1.77015e-04
 Reference value :  1.77016e-04
 Reference value :  1.77018e-04
 Reference value :  1.77020e-04
 Reference value :  1.77022e-04
 Reference value :  1.77023e-04
 Reference value :  1.77024e-04
 Reference value :  1.77025e-04
 Reference value :  1.77027e-04
 Reference value :  1.77028e-04
 Reference value :  1.77030e-04
 Reference value :  1.77032e-04
 Reference value :  1.77035e-04
 Reference value :  1.77039e-04
 Reference value :  1.77043e-04
 Reference value :  1.77049e-04
 Reference value :  1.77053e-04
 Reference value :  1.77057e-04
 Reference value :  1.77061e-04
 Reference value :  1.77066e-04
 Reference value :  1.77073e-04
 Reference value :  1.77080e-04
 Reference value :  1.77093e-04
 Reference value :  1.77118e-04
 Reference value :  1.77154e-04
 Reference value :  1.77226e-04
 Reference value :  1.77250e-04
 Reference value :  1.77250e-04
 Reference value :  1.77250e-04
 Reference value :  1.77250e-04
 Reference value :  1.77250e-04
 Reference value :  1.77250e-04
 Reference value :  1.77250e-04
 Reference value :  1.77250e-04
 Reference value :  1.77250e-04
 Reference value :  1.77250e-04
 Reference value :  1.77250e-04
 Reference value :  1.77250e-04
 Reference value :  1.77250e-04
 Reference value :  1.77251e-04
 Reference value :  1.77251e-04
 Reference value :  1.77252e-04
 Reference value :  1.77252e-04
 Reference value :  1.77253e-04
 Reference value :  1.77254e-04
 Reference value :  1.77254e-04
 Reference value :  1.77255e-04
 Reference value :  1.77256e-04
 Reference value :  1.77257e-04
 Reference value :  1.77258e-04
 Reference value :  1.77259e-04
 Reference value :  1.77261e-04
 Reference value :  1.77263e-04
 Reference value :  1.77266e-04
 Reference value :  1.77271e-04
 Reference value :  1.77277e-04
 Reference value :  1.77290e-04
 Reference value :  1.77316e-04
 Reference value :  1.77367e-04
 Reference value :  1.77470e-04
 Reference value :  1.77500e-04
 Reference value :  1.77500e-04
 Reference value :  1.77500e-04
 Reference value :  1.77500e-04
 Reference value :  1.77500e-04
 Reference value :  1.77500e-04
 Reference value :  1.77500e-04
 Reference value :  1.77500e-04
 Reference value :  1.77500e-04
 Reference value :  1.77500e-04
 Reference value :  1.77500e-04
 Reference value :  1.77501e-04
 Reference value :  1.77501e-04
 Reference value :  1.77501e-04
 Reference value :  1.77502e-04
 Reference value :  1.77503e-04
 Reference value :  1.77503e-04
 Reference value :  1.77504e-04
 Reference value :  1.77505e-04
 Reference value :  1.77506e-04
 Reference value :  1.77507e-04
 Reference value :  1.77508e-04
 Reference value :  1.77509e-04
 Reference value :  1.77511e-04
 Reference value :  1.77512e-04
 Reference value :  1.77513e-04
 Reference value :  1.77515e-04
 Reference value :  1.77516e-04
 Reference value :  1.77518e-04
 Reference value :  1.77520e-04
 Reference value :  1.77523e-04
 Reference value :  1.77528e-04
 Reference value :  1.77538e-04
 Reference value :  1.77557e-04
 Reference value :  1.77594e-04
 Reference value :  1.77667e-04
 Reference value :  1.77750e-04
 Reference value :  1.77750e-04
 Reference value :  1.77750e-04
 Reference value :  1.77750e-04
 Reference value :  1.77750e-04
 Reference value :  1.77750e-04
 Reference value :  1.77750e-04
 Reference value :  1.77750e-04
 Reference value :  1.77750e-04
 Reference value :  1.77750e-04
 Reference value :  1.77750e-04
 Reference value :  1.77750e-04
 Reference value :  1.77750e-04
 Reference value :  1.77751e-04
 Reference value :  1.77751e-04
 Reference value :  1.77752e-04
 Reference value :  1.77752e-04
 Reference value :  1.77753e-04
 Reference value :  1.77754e-04
 Reference value :  1.77754e-04
 Reference value :  1.77755e-04
 Reference value :  1.77756e-04
 Reference value :  1.77757e-04
 Reference value :  1.77757e-04
 Reference value :  1.77758e-04
 Reference value :  1.77760e-04
 Reference value :  1.77762e-04
 Reference value :  1.77764e-04
 Reference value :  1.77768e-04
 Reference value :  1.77772e-04
 Reference value :  1.77781e-04
 Reference value :  1.77798e-04
 Reference value :  1.77833e-04
 Reference value :  1.77902e-04
 Reference value :  1.78000e-04
 Reference value :  1.78000e-04
 Reference value :  1.78000e-04
 Reference value :  1.78000e-04
 Reference value :  1.78000e-04
 Reference value :  1.78000e-04
 Reference value :  1.78000e-04
 Reference value :  1.78000e-04
 Reference value :  1.78000e-04
 Reference value :  1.78000e-04
 Reference value :  1.78000e-04
 Reference value :  1.78001e-04
 Reference value :  1.78001e-04
 Reference value :  1.78001e-04
 Reference value :  1.78002e-04
 Reference value :  1.78003e-04
 Reference value :  1.78003e-04
 Reference value :  1.78004e-04
 Reference value :  1.78005e-04
 Reference value :  1.78006e-04
 Reference value :  1.78007e-04
 Reference value :  1.78007e-04
 Reference value :  1.78008e-04
 Reference value :  1.78009e-04
 Reference value :  1.78010e-04
 Reference value :  1.78012e-04
 Reference value :  1.78014e-04
 Reference value :  1.78017e-04
 Reference value :  1.78020e-04
 Reference value :  1.78023e-04
 Reference value :  1.78025e-04
 Reference value :  1.78028e-04
 Reference value :  1.78034e-04
 Reference value :  1.78042e-04
 Reference value :  1.78054e-04
 Reference value :  1.78077e-04
 Reference value :  1.78121e-04
 Reference value :  1.78210e-04
 Reference value :  1.78250e-04
 Reference value :  1.78250e-04
 Reference value :  1.78250e-04
 Reference value :  1.78250e-04
 Reference value :  1.78250e-04
 Reference value :  1.78250e-04
 Reference value :  1.78250e-04
 Reference value :  1.78250e-04
 Reference value :  1.78250e-04
 Reference value :  1.78250e-04
 Reference value :  1.78250e-04
 Reference value :  1.78250e-04
 Reference value :  1.78250e-04
 Reference value :  1.78251e-04
 Reference value :  1.78251e-04
 Reference value :  1.78252e-04
 Reference value :  1.78252e-04
 Reference value :  1.78253e-04
 Reference value :  1.78254e-04
 Reference value :  1.78254e-04
 Reference value :  1.78255e-04
 Reference value :  1.78257e-04
 Reference value :  1.78258e-04
 Reference value :  1.78259e-04
 Reference value :  1.78262e-04
 Reference value :  1.78265e-04
 Reference value :  1.78269e-04
 Reference value :  1.78273e-04
 Reference value :  1.78283e-04
 Reference value :  1.78302e-04
 Reference value :  1.78340e-04
 Reference value :  1.78416e-04
 Reference value :  1.78500e-04
No. of Data Rows : 27786
ngspice-44 done
