
Note: Compatibility modes selected: hs a


Circuit: ** sch_path: /home/samantha/cace/sar-adc-using-sky130-pdk/runs/run_2025-09-04_14-38-01/parameters/sndr/run_0/sndr_enob_fom.sch

option SCALE: Scale is set to 1e-06 for instance and model parameters
option SCALE: Scale is set to 1e-06 for instance and model parameters
option SCALE: Scale is set to 1e-06 for instance and model parameters
option SCALE: Scale is set to 1e-06 for instance and model parameters
Doing analysis at TEMP = 27.000000 and TNOM = 27.000000

Using KLU as Direct Linear Solver
Operating point simulation skipped by 'uic',
  now using transient initial conditions.
 Reference value :  1.00000e-12
 Reference value :  1.08400e-12
 Reference value :  1.69990e-12
 Reference value :  3.12659e-12
 Reference value :  6.25891e-12
 Reference value :  2.03014e-11
 Reference value :  1.00000e-10
 Reference value :  1.38245e-10
 Reference value :  4.44209e-10
 Reference value :  1.36418e-09
 Reference value :  2.44573e-09
 Reference value :  4.06546e-09
 Reference value :  6.06478e-09
 Reference value :  7.43642e-09
 Reference value :  9.24105e-09
 Reference value :  1.04061e-08
 Reference value :  1.13124e-08
 Reference value :  1.31332e-08
 Reference value :  1.75537e-08
 Reference value :  2.90519e-08
 Reference value :  5.09601e-08
 Reference value :  1.12730e-07
 Reference value :  2.50110e-07
 Reference value :  2.50200e-07
 Reference value :  2.50255e-07
 Reference value :  2.50550e-07
 Reference value :  2.51013e-07
 Reference value :  2.51972e-07
 Reference value :  2.53826e-07
 Reference value :  2.55087e-07
 Reference value :  2.57820e-07
 Reference value :  2.64280e-07
 Reference value :  3.39028e-07
 Reference value :  5.00010e-07
 Reference value :  5.00100e-07
 Reference value :  5.00155e-07
 Reference value :  5.00531e-07
 Reference value :  5.01207e-07
 Reference value :  5.02108e-07
 Reference value :  5.03098e-07
 Reference value :  5.04255e-07
 Reference value :  5.05878e-07
 Reference value :  5.07092e-07
 Reference value :  5.09716e-07
 Reference value :  5.12347e-07
 Reference value :  5.17738e-07
 Reference value :  5.30791e-07
 Reference value :  5.87164e-07
 Reference value :  7.50100e-07
 Reference value :  7.50170e-07
 Reference value :  7.50224e-07
 Reference value :  7.50448e-07
 Reference value :  7.51363e-07
 Reference value :  7.52220e-07
 Reference value :  7.53499e-07
 Reference value :  7.53998e-07
 Reference value :  7.55178e-07
 Reference value :  7.57853e-07
 Reference value :  7.74726e-07
 Reference value :  8.66990e-07
 Reference value :  9.27872e-07
 Reference value :  9.76081e-07
 Reference value :  1.00001e-06
 Reference value :  1.00010e-06
 Reference value :  1.00016e-06
 Reference value :  1.00053e-06
 Reference value :  1.00163e-06
 Reference value :  1.00257e-06
 Reference value :  1.00363e-06
 Reference value :  1.00470e-06
 Reference value :  1.00573e-06
 Reference value :  1.00710e-06
 Reference value :  1.00918e-06
 Reference value :  1.01010e-06
 Reference value :  1.01199e-06
 Reference value :  1.01375e-06
 Reference value :  1.01518e-06
 Reference value :  1.01677e-06
 Reference value :  1.01859e-06
 Reference value :  1.02439e-06
 Reference value :  1.05255e-06
 Reference value :  1.07724e-06
 Reference value :  1.15887e-06
 Reference value :  1.25011e-06
 Reference value :  1.25020e-06
 Reference value :  1.25026e-06
 Reference value :  1.25063e-06
 Reference value :  1.25177e-06
 Reference value :  1.25280e-06
 Reference value :  1.25402e-06
 Reference value :  1.25585e-06
 Reference value :  1.25995e-06
 Reference value :  1.28884e-06
 Reference value :  1.48271e-06
 Reference value :  1.50003e-06
 Reference value :  1.50011e-06
 Reference value :  1.50022e-06
 Reference value :  1.50088e-06
 Reference value :  1.50164e-06
 Reference value :  1.50308e-06
 Reference value :  1.50421e-06
 Reference value :  1.50575e-06
 Reference value :  1.50716e-06
 Reference value :  1.50898e-06
 Reference value :  1.51109e-06
 Reference value :  1.51827e-06
 Reference value :  1.55229e-06
 Reference value :  1.75011e-06
 Reference value :  1.75017e-06
 Reference value :  1.75022e-06
 Reference value :  1.75045e-06
 Reference value :  1.75136e-06
 Reference value :  1.75222e-06
 Reference value :  1.75350e-06
 Reference value :  1.75458e-06
 Reference value :  1.75593e-06
 Reference value :  1.76010e-06
 Reference value :  1.78956e-06
 Reference value :  1.98312e-06
 Reference value :  2.00003e-06
 Reference value :  2.00011e-06
 Reference value :  2.00022e-06
 Reference value :  2.00089e-06
 Reference value :  2.00164e-06
 Reference value :  2.00259e-06
 Reference value :  2.00365e-06
 Reference value :  2.00476e-06
 Reference value :  2.00528e-06
 Reference value :  2.00757e-06
 Reference value :  2.01121e-06
 Reference value :  2.01276e-06
 Reference value :  2.01406e-06
 Reference value :  2.01655e-06
 Reference value :  2.02062e-06
 Reference value :  2.02999e-06
 Reference value :  2.07487e-06
 Reference value :  2.25010e-06
 Reference value :  2.25017e-06
 Reference value :  2.25022e-06
 Reference value :  2.25045e-06
 Reference value :  2.25136e-06
 Reference value :  2.25222e-06
 Reference value :  2.25352e-06
 Reference value :  2.25460e-06
 Reference value :  2.25585e-06
 Reference value :  2.25994e-06
 Reference value :  2.27387e-06
 Reference value :  2.37088e-06
 Reference value :  2.50001e-06
 Reference value :  2.50010e-06
 Reference value :  2.50012e-06
 Reference value :  2.50034e-06
 Reference value :  2.50121e-06
 Reference value :  2.50211e-06
 Reference value :  2.50308e-06
 Reference value :  2.50422e-06
 Reference value :  2.50578e-06
 Reference value :  2.50719e-06
 Reference value :  2.50902e-06
 Reference value :  2.51113e-06
 Reference value :  2.51831e-06
 Reference value :  2.58539e-06
 Reference value :  2.75011e-06
 Reference value :  2.75020e-06
 Reference value :  2.75026e-06
 Reference value :  2.75063e-06
 Reference value :  2.75136e-06
 Reference value :  2.75222e-06
 Reference value :  2.75350e-06
 Reference value :  2.75400e-06
 Reference value :  2.75593e-06
 Reference value :  2.76009e-06
 Reference value :  2.78953e-06
 Reference value :  2.98085e-06
 Reference value :  3.00001e-06
 Reference value :  3.00010e-06
 Reference value :  3.00016e-06
 Reference value :  3.00053e-06
 Reference value :  3.00121e-06
 Reference value :  3.00211e-06
 Reference value :  3.00308e-06
 Reference value :  3.00420e-06
 Reference value :  3.00528e-06
 Reference value :  3.00675e-06
 Reference value :  3.01121e-06
 Reference value :  3.01276e-06
 Reference value :  3.01406e-06
 Reference value :  3.01655e-06
 Reference value :  3.01921e-06
 Reference value :  3.02528e-06
 Reference value :  3.05140e-06
 Reference value :  3.15183e-06
 Reference value :  3.25011e-06
 Reference value :  3.25020e-06
 Reference value :  3.25026e-06
 Reference value :  3.25063e-06
 Reference value :  3.25136e-06
 Reference value :  3.25222e-06
 Reference value :  3.25352e-06
 Reference value :  3.25460e-06
 Reference value :  3.25585e-06
 Reference value :  3.25995e-06
 Reference value :  3.28880e-06
 Reference value :  3.47886e-06
 Reference value :  3.50003e-06
 Reference value :  3.50011e-06
 Reference value :  3.50022e-06
 Reference value :  3.50088e-06
 Reference value :  3.50164e-06
 Reference value :  3.50259e-06
 Reference value :  3.50365e-06
 Reference value :  3.50494e-06
 Reference value :  3.50645e-06
 Reference value :  3.50807e-06
 Reference value :  3.50994e-06
 Reference value :  3.51483e-06
 Reference value :  3.53435e-06
 Reference value :  3.65146e-06
 Reference value :  3.75013e-06
 Reference value :  3.75021e-06
 Reference value :  3.75032e-06
 Reference value :  3.75087e-06
 Reference value :  3.75177e-06
 Reference value :  3.75350e-06
 Reference value :  3.75400e-06
 Reference value :  3.75518e-06
 Reference value :  3.75806e-06
 Reference value :  3.76681e-06
 Reference value :  3.81685e-06
 Reference value :  4.00000e-06
 Reference value :  4.00007e-06
 Reference value :  4.00012e-06
 Reference value :  4.00034e-06
 Reference value :  4.00089e-06
 Reference value :  4.00164e-06
 Reference value :  4.00259e-06
 Reference value :  4.00365e-06
 Reference value :  4.00476e-06
 Reference value :  4.00528e-06
 Reference value :  4.00757e-06
 Reference value :  4.01119e-06
 Reference value :  4.01269e-06
 Reference value :  4.01399e-06
 Reference value :  4.01651e-06
 Reference value :  4.02051e-06
 Reference value :  4.02952e-06
 Reference value :  4.06347e-06
 Reference value :  4.09771e-06
 Reference value :  4.11371e-06
 Reference value :  4.14889e-06
 Reference value :  4.23300e-06
 Reference value :  4.25013e-06
 Reference value :  4.25021e-06
 Reference value :  4.25032e-06
 Reference value :  4.25082e-06
 Reference value :  4.25151e-06
 Reference value :  4.25240e-06
 Reference value :  4.25375e-06
 Reference value :  4.25487e-06
 Reference value :  4.25616e-06
 Reference value :  4.26065e-06
 Reference value :  4.27717e-06
 Reference value :  4.38397e-06
 Reference value :  4.50003e-06
 Reference value :  4.50011e-06
 Reference value :  4.50022e-06
 Reference value :  4.50096e-06
 Reference value :  4.50185e-06
 Reference value :  4.50349e-06
 Reference value :  4.50473e-06
 Reference value :  4.50606e-06
 Reference value :  4.50770e-06
 Reference value :  4.50962e-06
 Reference value :  4.51193e-06
 Reference value :  4.51965e-06
 Reference value :  4.55549e-06
 Reference value :  4.75010e-06
 Reference value :  4.75017e-06
 Reference value :  4.75022e-06
 Reference value :  4.75032e-06
 Reference value :  4.75082e-06
 Reference value :  4.75151e-06
 Reference value :  4.75240e-06
 Reference value :  4.75373e-06
 Reference value :  4.75425e-06
 Reference value :  4.75544e-06
 Reference value :  4.75692e-06
 Reference value :  4.76352e-06
 Reference value :  4.79324e-06
 Reference value :  4.99596e-06
 Reference value :  5.00003e-06
 Reference value :  5.00011e-06
 Reference value :  5.00022e-06
 Reference value :  5.00096e-06
 Reference value :  5.00242e-06
 Reference value :  5.00348e-06
 Reference value :  5.00468e-06
 Reference value :  5.00519e-06
 Reference value :  5.00650e-06
 Reference value :  5.00878e-06
 Reference value :  5.01214e-06
 Reference value :  5.01491e-06
 Reference value :  5.01724e-06
 Reference value :  5.01969e-06
 Reference value :  5.02341e-06
 Reference value :  5.03981e-06
 Reference value :  5.05679e-06
 Reference value :  5.06878e-06
 Reference value :  5.09488e-06
 Reference value :  5.19398e-06
 Reference value :  5.25010e-06
 Reference value :  5.25017e-06
 Reference value :  5.25022e-06
 Reference value :  5.25042e-06
 Reference value :  5.25110e-06
 Reference value :  5.25152e-06
 Reference value :  5.25242e-06
 Reference value :  5.25377e-06
 Reference value :  5.25430e-06
 Reference value :  5.25547e-06
 Reference value :  5.25707e-06
 Reference value :  5.26380e-06
 Reference value :  5.29662e-06
 Reference value :  5.50000e-06
 Reference value :  5.50007e-06
 Reference value :  5.50012e-06
 Reference value :  5.50034e-06
 Reference value :  5.50138e-06
 Reference value :  5.50242e-06
 Reference value :  5.50348e-06
 Reference value :  5.50473e-06
 Reference value :  5.50606e-06
 Reference value :  5.50769e-06
 Reference value :  5.50962e-06
 Reference value :  5.51192e-06
 Reference value :  5.51957e-06
 Reference value :  5.55472e-06
 Reference value :  5.75010e-06
 Reference value :  5.75017e-06
 Reference value :  5.75022e-06
 Reference value :  5.75032e-06
 Reference value :  5.75082e-06
 Reference value :  5.75151e-06
 Reference value :  5.75240e-06
 Reference value :  5.75373e-06
 Reference value :  5.75425e-06
 Reference value :  5.75544e-06
 Reference value :  5.75693e-06
 Reference value :  5.76353e-06
 Reference value :  5.79323e-06
 Reference value :  5.99454e-06
 Reference value :  6.00003e-06
 Reference value :  6.00011e-06
 Reference value :  6.00022e-06
 Reference value :  6.00096e-06
 Reference value :  6.00185e-06
 Reference value :  6.00294e-06
 Reference value :  6.00348e-06
 Reference value :  6.00468e-06
 Reference value :  6.00518e-06
 Reference value :  6.00650e-06
 Reference value :  6.01066e-06
 Reference value :  6.01213e-06
 Reference value :  6.01491e-06
 Reference value :  6.01724e-06
 Reference value :  6.02150e-06
 Reference value :  6.03197e-06
 Reference value :  6.05900e-06
 Reference value :  6.15252e-06
 Reference value :  6.25011e-06
 Reference value :  6.25020e-06
 Reference value :  6.25026e-06
 Reference value :  6.25061e-06
 Reference value :  6.25152e-06
 Reference value :  6.25242e-06
 Reference value :  6.25377e-06
 Reference value :  6.25430e-06
 Reference value :  6.25547e-06
 Reference value :  6.25707e-06
 Reference value :  6.26380e-06
 Reference value :  6.29649e-06
 Reference value :  6.50000e-06
 Reference value :  6.50003e-06
 Reference value :  6.50010e-06
 Reference value :  6.50016e-06
 Reference value :  6.50057e-06
 Reference value :  6.50138e-06
 Reference value :  6.50242e-06
 Reference value :  6.50348e-06
 Reference value :  6.50473e-06
 Reference value :  6.50606e-06
 Reference value :  6.50769e-06
 Reference value :  6.50962e-06
 Reference value :  6.51191e-06
 Reference value :  6.51953e-06
 Reference value :  6.55441e-06
 Reference value :  6.75010e-06
 Reference value :  6.75017e-06
 Reference value :  6.75022e-06
 Reference value :  6.75032e-06
 Reference value :  6.75082e-06
 Reference value :  6.75151e-06
 Reference value :  6.75240e-06
 Reference value :  6.75373e-06
 Reference value :  6.75425e-06
 Reference value :  6.75544e-06
 Reference value :  6.75693e-06
 Reference value :  6.76066e-06
 Reference value :  6.77701e-06
 Reference value :  6.87970e-06
 Reference value :  7.00001e-06
 Reference value :  7.00010e-06
 Reference value :  7.00016e-06
 Reference value :  7.00057e-06
 Reference value :  7.00185e-06
 Reference value :  7.00294e-06
 Reference value :  7.00407e-06
 Reference value :  7.00518e-06
 Reference value :  7.00650e-06
 Reference value :  7.00878e-06
 Reference value :  7.01213e-06
 Reference value :  7.01492e-06
 Reference value :  7.01731e-06
 Reference value :  7.01979e-06
 Reference value :  7.02357e-06
 Reference value :  7.03862e-06
 Reference value :  7.04575e-06
 Reference value :  7.05824e-06
 Reference value :  7.07155e-06
 Reference value :  7.10453e-06
 Reference value :  7.12474e-06
 Reference value :  7.19738e-06
 Reference value :  7.25013e-06
 Reference value :  7.25021e-06
 Reference value :  7.25032e-06
 Reference value :  7.25061e-06
 Reference value :  7.25110e-06
 Reference value :  7.25196e-06
 Reference value :  7.25309e-06
 Reference value :  7.25427e-06
 Reference value :  7.25543e-06
 Reference value :  7.25708e-06
 Reference value :  7.26392e-06
 Reference value :  7.29651e-06
 Reference value :  7.50000e-06
 Reference value :  7.50007e-06
 Reference value :  7.50012e-06
 Reference value :  7.50034e-06
 Reference value :  7.50096e-06
 Reference value :  7.50185e-06
 Reference value :  7.50294e-06
 Reference value :  7.50347e-06
 Reference value :  7.50469e-06
 Reference value :  7.50604e-06
 Reference value :  7.50772e-06
 Reference value :  7.50966e-06
 Reference value :  7.51202e-06
 Reference value :  7.51994e-06
 Reference value :  7.55748e-06
 Reference value :  7.75010e-06
 Reference value :  7.75017e-06
 Reference value :  7.75022e-06
 Reference value :  7.75042e-06
 Reference value :  7.75082e-06
 Reference value :  7.75151e-06
 Reference value :  7.75240e-06
 Reference value :  7.75373e-06
 Reference value :  7.75425e-06
 Reference value :  7.75543e-06
 Reference value :  7.75616e-06
 Reference value :  7.75770e-06
 Reference value :  7.75867e-06
 Reference value :  7.76337e-06
 Reference value :  7.77126e-06
 Reference value :  7.78932e-06
 Reference value :  7.83222e-06
 Reference value :  8.00000e-06
 Reference value :  8.00003e-06
 Reference value :  8.00011e-06
 Reference value :  8.00022e-06
 Reference value :  8.00057e-06
 Reference value :  8.00138e-06
 Reference value :  8.00241e-06
 Reference value :  8.00350e-06
 Reference value :  8.00475e-06
 Reference value :  8.00589e-06
 Reference value :  8.00739e-06
 Reference value :  8.00820e-06
 Reference value :  8.00974e-06
 Reference value :  8.01157e-06
 Reference value :  8.01494e-06
 Reference value :  8.01784e-06
 Reference value :  8.02399e-06
 Reference value :  8.03666e-06
 Reference value :  8.05888e-06
 Reference value :  8.07968e-06
 Reference value :  8.10222e-06
 Reference value :  8.14630e-06
 Reference value :  8.25010e-06
 Reference value :  8.25013e-06
 Reference value :  8.25021e-06
 Reference value :  8.25032e-06
 Reference value :  8.25083e-06
 Reference value :  8.25160e-06
 Reference value :  8.25251e-06
 Reference value :  8.25395e-06
 Reference value :  8.25580e-06
 Reference value :  8.25845e-06
 Reference value :  8.26704e-06
 Reference value :  8.32050e-06
 Reference value :  8.50001e-06
 Reference value :  8.50007e-06
 Reference value :  8.50012e-06
 Reference value :  8.50034e-06
 Reference value :  8.50096e-06
 Reference value :  8.50196e-06
 Reference value :  8.50309e-06
 Reference value :  8.50367e-06
 Reference value :  8.50473e-06
 Reference value :  8.50594e-06
 Reference value :  8.50976e-06
 Reference value :  8.51803e-06
 Reference value :  8.51890e-06
 Reference value :  8.52416e-06
 Reference value :  8.53049e-06
 Reference value :  8.53270e-06
 Reference value :  8.53620e-06
 Reference value :  8.53768e-06
 Reference value :  8.53963e-06
 Reference value :  8.54158e-06
 Reference value :  8.54347e-06
 Reference value :  8.54522e-06
 Reference value :  8.55122e-06
 Reference value :  8.55975e-06
 Reference value :  8.56820e-06
 Reference value :  8.58055e-06
 Reference value :  8.60930e-06
 Reference value :  8.68963e-06
 Reference value :  8.75011e-06
 Reference value :  8.75017e-06
 Reference value :  8.75021e-06
 Reference value :  8.75026e-06
 Reference value :  8.75063e-06
 Reference value :  8.75136e-06
 Reference value :  8.75178e-06
 Reference value :  8.75281e-06
 Reference value :  8.75400e-06
 Reference value :  8.75457e-06
 Reference value :  8.75581e-06
 Reference value :  8.75800e-06
 Reference value :  8.76622e-06
 Reference value :  8.81430e-06
 Reference value :  8.97251e-06
 Reference value :  9.00003e-06
 Reference value :  9.00010e-06
 Reference value :  9.00016e-06
 Reference value :  9.00053e-06
 Reference value :  9.00121e-06
 Reference value :  9.00164e-06
 Reference value :  9.00258e-06
 Reference value :  9.00307e-06
 Reference value :  9.00420e-06
 Reference value :  9.00575e-06
 Reference value :  9.00838e-06
 Reference value :  9.00957e-06
 Reference value :  9.01232e-06
 Reference value :  9.01545e-06
 Reference value :  9.02017e-06
 Reference value :  9.04016e-06
 Reference value :  9.12543e-06
 Reference value :  9.25010e-06
 Reference value :  9.25013e-06
 Reference value :  9.25020e-06
 Reference value :  9.25022e-06
 Reference value :  9.25045e-06
 Reference value :  9.25136e-06
 Reference value :  9.25177e-06
 Reference value :  9.25280e-06
 Reference value :  9.25398e-06
 Reference value :  9.25516e-06
 Reference value :  9.25667e-06
 Reference value :  9.26004e-06
 Reference value :  9.27450e-06
 Reference value :  9.31172e-06
 Reference value :  9.33274e-06
 Reference value :  9.35573e-06
 Reference value :  9.37061e-06
 Reference value :  9.39954e-06
 Reference value :  9.42512e-06
 Reference value :  9.49846e-06
 Reference value :  9.50003e-06
 Reference value :  9.50011e-06
 Reference value :  9.50016e-06
 Reference value :  9.50053e-06
 Reference value :  9.50121e-06
 Reference value :  9.50164e-06
 Reference value :  9.50259e-06
 Reference value :  9.50309e-06
 Reference value :  9.50422e-06
 Reference value :  9.50526e-06
 Reference value :  9.50653e-06
 Reference value :  9.50838e-06
 Reference value :  9.51035e-06
 Reference value :  9.51135e-06
 Reference value :  9.51339e-06
 Reference value :  9.51527e-06
 Reference value :  9.51734e-06
 Reference value :  9.51842e-06
 Reference value :  9.52141e-06
 Reference value :  9.53151e-06
 Reference value :  9.53650e-06
 Reference value :  9.54197e-06
 Reference value :  9.54577e-06
 Reference value :  9.55352e-06
 Reference value :  9.56809e-06
 Reference value :  9.59598e-06
 Reference value :  9.69323e-06
 Reference value :  9.75013e-06
 Reference value :  9.75020e-06
 Reference value :  9.75026e-06
 Reference value :  9.75063e-06
 Reference value :  9.75136e-06
 Reference value :  9.75222e-06
 Reference value :  9.75352e-06
 Reference value :  9.75402e-06
 Reference value :  9.75516e-06
 Reference value :  9.75586e-06
 Reference value :  9.75999e-06
 Reference value :  9.76652e-06
 Reference value :  9.81578e-06
 Reference value :  1.00000e-05
 Reference value :  1.00001e-05
 Reference value :  1.00001e-05
 Reference value :  1.00002e-05
 Reference value :  1.00005e-05
 Reference value :  1.00012e-05
 Reference value :  1.00016e-05
 Reference value :  1.00026e-05
 Reference value :  1.00031e-05
 Reference value :  1.00042e-05
 Reference value :  1.00058e-05
 Reference value :  1.00064e-05
 Reference value :  1.00081e-05
 Reference value :  1.00099e-05
 Reference value :  1.00124e-05
 Reference value :  1.00239e-05
 Reference value :  1.00824e-05
 Reference value :  1.02501e-05
 Reference value :  1.02502e-05
 Reference value :  1.02502e-05
 Reference value :  1.02504e-05
 Reference value :  1.02514e-05
 Reference value :  1.02518e-05
 Reference value :  1.02528e-05
 Reference value :  1.02540e-05
 Reference value :  1.02552e-05
 Reference value :  1.02567e-05
 Reference value :  1.02601e-05
 Reference value :  1.02748e-05
 Reference value :  1.03740e-05
 Reference value :  1.05000e-05
 Reference value :  1.05001e-05
 Reference value :  1.05001e-05
 Reference value :  1.05002e-05
 Reference value :  1.05005e-05
 Reference value :  1.05012e-05
 Reference value :  1.05016e-05
 Reference value :  1.05026e-05
 Reference value :  1.05031e-05
 Reference value :  1.05042e-05
 Reference value :  1.05053e-05
 Reference value :  1.05068e-05
 Reference value :  1.05092e-05
 Reference value :  1.05128e-05
 Reference value :  1.05141e-05
 Reference value :  1.05166e-05
 Reference value :  1.05192e-05
 Reference value :  1.05230e-05
 Reference value :  1.05374e-05
 Reference value :  1.06058e-05
 Reference value :  1.07501e-05
 Reference value :  1.07502e-05
 Reference value :  1.07502e-05
 Reference value :  1.07504e-05
 Reference value :  1.07514e-05
 Reference value :  1.07518e-05
 Reference value :  1.07528e-05
 Reference value :  1.07540e-05
 Reference value :  1.07552e-05
 Reference value :  1.07566e-05
 Reference value :  1.07600e-05
 Reference value :  1.07739e-05
 Reference value :  1.08689e-05
 Reference value :  1.10000e-05
 Reference value :  1.10001e-05
 Reference value :  1.10001e-05
 Reference value :  1.10002e-05
 Reference value :  1.10003e-05
 Reference value :  1.10009e-05
 Reference value :  1.10016e-05
 Reference value :  1.10026e-05
 Reference value :  1.10031e-05
 Reference value :  1.10042e-05
 Reference value :  1.10058e-05
 Reference value :  1.10065e-05
 Reference value :  1.10081e-05
 Reference value :  1.10099e-05
 Reference value :  1.10124e-05
 Reference value :  1.10240e-05
 Reference value :  1.10827e-05
 Reference value :  1.12501e-05
 Reference value :  1.12502e-05
 Reference value :  1.12503e-05
 Reference value :  1.12504e-05
 Reference value :  1.12514e-05
 Reference value :  1.12518e-05
 Reference value :  1.12528e-05
 Reference value :  1.12540e-05
 Reference value :  1.12552e-05
 Reference value :  1.12567e-05
 Reference value :  1.12601e-05
 Reference value :  1.12748e-05
 Reference value :  1.13717e-05
 Reference value :  1.15000e-05
 Reference value :  1.15001e-05
 Reference value :  1.15001e-05
 Reference value :  1.15002e-05
 Reference value :  1.15005e-05
 Reference value :  1.15012e-05
 Reference value :  1.15016e-05
 Reference value :  1.15026e-05
 Reference value :  1.15031e-05
 Reference value :  1.15042e-05
 Reference value :  1.15053e-05
 Reference value :  1.15068e-05
 Reference value :  1.15092e-05
 Reference value :  1.15128e-05
 Reference value :  1.15141e-05
 Reference value :  1.15166e-05
 Reference value :  1.15192e-05
 Reference value :  1.15229e-05
 Reference value :  1.15373e-05
 Reference value :  1.15716e-05
 Reference value :  1.16375e-05
 Reference value :  1.17501e-05
 Reference value :  1.17501e-05
 Reference value :  1.17502e-05
 Reference value :  1.17503e-05
 Reference value :  1.17506e-05
 Reference value :  1.17514e-05
 Reference value :  1.17518e-05
 Reference value :  1.17528e-05
 Reference value :  1.17535e-05
 Reference value :  1.17540e-05
 Reference value :  1.17552e-05
 Reference value :  1.17558e-05
 Reference value :  1.17580e-05
 Reference value :  1.17664e-05
 Reference value :  1.18155e-05
 Reference value :  1.20000e-05
 Reference value :  1.20000e-05
 Reference value :  1.20001e-05
 Reference value :  1.20002e-05
 Reference value :  1.20003e-05
 Reference value :  1.20009e-05
 Reference value :  1.20016e-05
 Reference value :  1.20026e-05
 Reference value :  1.20031e-05
 Reference value :  1.20042e-05
 Reference value :  1.20058e-05
 Reference value :  1.20065e-05
 Reference value :  1.20081e-05
 Reference value :  1.20099e-05
 Reference value :  1.20124e-05
 Reference value :  1.20182e-05
 Reference value :  1.20502e-05
 Reference value :  1.22501e-05
 Reference value :  1.22501e-05
 Reference value :  1.22502e-05
 Reference value :  1.22503e-05
 Reference value :  1.22504e-05
 Reference value :  1.22509e-05
 Reference value :  1.22518e-05
 Reference value :  1.22528e-05
 Reference value :  1.22540e-05
 Reference value :  1.22552e-05
 Reference value :  1.22567e-05
 Reference value :  1.22601e-05
 Reference value :  1.22748e-05
 Reference value :  1.23716e-05
 Reference value :  1.25000e-05
 Reference value :  1.25001e-05
 Reference value :  1.25001e-05
 Reference value :  1.25002e-05
 Reference value :  1.25005e-05
 Reference value :  1.25012e-05
 Reference value :  1.25016e-05
 Reference value :  1.25026e-05
 Reference value :  1.25031e-05
 Reference value :  1.25042e-05
 Reference value :  1.25053e-05
 Reference value :  1.25068e-05
 Reference value :  1.25092e-05
 Reference value :  1.25127e-05
 Reference value :  1.25140e-05
 Reference value :  1.25165e-05
 Reference value :  1.25191e-05
 Reference value :  1.25227e-05
 Reference value :  1.25357e-05
 Reference value :  1.25594e-05
 Reference value :  1.25679e-05
 Reference value :  1.25820e-05
 Reference value :  1.25935e-05
 Reference value :  1.26116e-05
 Reference value :  1.26554e-05
 Reference value :  1.27501e-05
 Reference value :  1.27501e-05
 Reference value :  1.27502e-05
 Reference value :  1.27503e-05
 Reference value :  1.27506e-05
 Reference value :  1.27515e-05
 Reference value :  1.27524e-05
 Reference value :  1.27537e-05
 Reference value :  1.27543e-05
 Reference value :  1.27554e-05
 Reference value :  1.27562e-05
 Reference value :  1.27584e-05
 Reference value :  1.27680e-05
 Reference value :  1.28241e-05
 Reference value :  1.30000e-05
 Reference value :  1.30000e-05
 Reference value :  1.30001e-05
 Reference value :  1.30002e-05
 Reference value :  1.30003e-05
 Reference value :  1.30010e-05
 Reference value :  1.30018e-05
 Reference value :  1.30029e-05
 Reference value :  1.30035e-05
 Reference value :  1.30047e-05
 Reference value :  1.30061e-05
 Reference value :  1.30077e-05
 Reference value :  1.30096e-05
 Reference value :  1.30119e-05
 Reference value :  1.30195e-05
 Reference value :  1.30544e-05
 Reference value :  1.31630e-05
 Reference value :  1.32501e-05
 Reference value :  1.32502e-05
 Reference value :  1.32503e-05
 Reference value :  1.32504e-05
 Reference value :  1.32508e-05
 Reference value :  1.32515e-05
 Reference value :  1.32524e-05
 Reference value :  1.32537e-05
 Reference value :  1.32543e-05
 Reference value :  1.32549e-05
 Reference value :  1.32554e-05
 Reference value :  1.32562e-05
 Reference value :  1.32584e-05
 Reference value :  1.32680e-05
 Reference value :  1.33227e-05
 Reference value :  1.35000e-05
 Reference value :  1.35000e-05
 Reference value :  1.35001e-05
 Reference value :  1.35001e-05
 Reference value :  1.35001e-05
 Reference value :  1.35002e-05
 Reference value :  1.35002e-05
 Reference value :  1.35003e-05
 Reference value :  1.35006e-05
 Reference value :  1.35010e-05
 Reference value :  1.35018e-05
 Reference value :  1.35029e-05
 Reference value :  1.35035e-05
 Reference value :  1.35041e-05
 Reference value :  1.35052e-05
 Reference value :  1.35058e-05
 Reference value :  1.35065e-05
 Reference value :  1.35073e-05
 Reference value :  1.35088e-05
 Reference value :  1.35107e-05
 Reference value :  1.35121e-05
 Reference value :  1.35137e-05
 Reference value :  1.35149e-05
 Reference value :  1.35162e-05
 Reference value :  1.35173e-05
 Reference value :  1.35198e-05
 Reference value :  1.35216e-05
 Reference value :  1.35269e-05
 Reference value :  1.35321e-05
 Reference value :  1.35478e-05
 Reference value :  1.35565e-05
 Reference value :  1.35625e-05
 Reference value :  1.35691e-05
 Reference value :  1.35779e-05
 Reference value :  1.36014e-05
 Reference value :  1.36137e-05
 Reference value :  1.36267e-05
 Reference value :  1.36396e-05
 Reference value :  1.36522e-05
 Reference value :  1.36634e-05
 Reference value :  1.37008e-05
 Reference value :  1.37501e-05
 Reference value :  1.37501e-05
 Reference value :  1.37502e-05
 Reference value :  1.37502e-05
 Reference value :  1.37503e-05
 Reference value :  1.37504e-05
 Reference value :  1.37508e-05
 Reference value :  1.37511e-05
 Reference value :  1.37515e-05
 Reference value :  1.37520e-05
 Reference value :  1.37524e-05
 Reference value :  1.37531e-05
 Reference value :  1.37538e-05
 Reference value :  1.37543e-05
 Reference value :  1.37549e-05
 Reference value :  1.37555e-05
 Reference value :  1.37562e-05
 Reference value :  1.37586e-05
 Reference value :  1.37638e-05
 Reference value :  1.37785e-05
 Reference value :  1.38305e-05
 Reference value :  1.40000e-05
 Reference value :  1.40000e-05
 Reference value :  1.40001e-05
 Reference value :  1.40001e-05
 Reference value :  1.40002e-05
 Reference value :  1.40003e-05
 Reference value :  1.40006e-05
 Reference value :  1.40010e-05
 Reference value :  1.40014e-05
 Reference value :  1.40019e-05
 Reference value :  1.40024e-05
 Reference value :  1.40029e-05
 Reference value :  1.40035e-05
 Reference value :  1.40047e-05
 Reference value :  1.40055e-05
 Reference value :  1.40061e-05
 Reference value :  1.40068e-05
 Reference value :  1.40077e-05
 Reference value :  1.40086e-05
 Reference value :  1.40106e-05
 Reference value :  1.40133e-05
 Reference value :  1.40258e-05
 Reference value :  1.40916e-05
 Reference value :  1.42501e-05
 Reference value :  1.42502e-05
 Reference value :  1.42502e-05
 Reference value :  1.42503e-05
 Reference value :  1.42506e-05
 Reference value :  1.42511e-05
 Reference value :  1.42515e-05
 Reference value :  1.42524e-05
 Reference value :  1.42537e-05
 Reference value :  1.42543e-05
 Reference value :  1.42554e-05
 Reference value :  1.42562e-05
 Reference value :  1.42585e-05
 Reference value :  1.42635e-05
 Reference value :  1.42931e-05
 Reference value :  1.44844e-05
 Reference value :  1.45000e-05
 Reference value :  1.45001e-05
 Reference value :  1.45001e-05
 Reference value :  1.45002e-05
 Reference value :  1.45006e-05
 Reference value :  1.45014e-05
 Reference value :  1.45024e-05
 Reference value :  1.45035e-05
 Reference value :  1.45047e-05
 Reference value :  1.45052e-05
 Reference value :  1.45058e-05
 Reference value :  1.45065e-05
 Reference value :  1.45088e-05
 Reference value :  1.45107e-05
 Reference value :  1.45121e-05
 Reference value :  1.45137e-05
 Reference value :  1.45149e-05
 Reference value :  1.45162e-05
 Reference value :  1.45173e-05
 Reference value :  1.45198e-05
 Reference value :  1.45216e-05
 Reference value :  1.45269e-05
 Reference value :  1.45382e-05
 Reference value :  1.45442e-05
 Reference value :  1.45493e-05
 Reference value :  1.45547e-05
 Reference value :  1.45608e-05
 Reference value :  1.45751e-05
 Reference value :  1.45931e-05
 Reference value :  1.46230e-05
 Reference value :  1.47151e-05
 Reference value :  1.47501e-05
 Reference value :  1.47501e-05
 Reference value :  1.47502e-05
 Reference value :  1.47502e-05
 Reference value :  1.47503e-05
 Reference value :  1.47504e-05
 Reference value :  1.47508e-05
 Reference value :  1.47511e-05
 Reference value :  1.47515e-05
 Reference value :  1.47524e-05
 Reference value :  1.47531e-05
 Reference value :  1.47537e-05
 Reference value :  1.47543e-05
 Reference value :  1.47549e-05
 Reference value :  1.47562e-05
 Reference value :  1.47571e-05
 Reference value :  1.47587e-05
 Reference value :  1.47639e-05
 Reference value :  1.47786e-05
 Reference value :  1.48300e-05
 Reference value :  1.50000e-05
 Reference value :  1.50000e-05
 Reference value :  1.50000e-05
 Reference value :  1.50001e-05
 Reference value :  1.50001e-05
 Reference value :  1.50001e-05
 Reference value :  1.50001e-05
 Reference value :  1.50002e-05
 Reference value :  1.50002e-05
 Reference value :  1.50003e-05
 Reference value :  1.50010e-05
 Reference value :  1.50014e-05
 Reference value :  1.50019e-05
 Reference value :  1.50024e-05
 Reference value :  1.50035e-05
 Reference value :  1.50047e-05
 Reference value :  1.50055e-05
 Reference value :  1.50060e-05
 Reference value :  1.50068e-05
 Reference value :  1.50086e-05
 Reference value :  1.50106e-05
 Reference value :  1.50120e-05
 Reference value :  1.50161e-05
 Reference value :  1.50263e-05
 Reference value :  1.50574e-05
 Reference value :  1.50973e-05
 Reference value :  1.52501e-05
 Reference value :  1.52501e-05
 Reference value :  1.52501e-05
 Reference value :  1.52502e-05
 Reference value :  1.52502e-05
 Reference value :  1.52502e-05
 Reference value :  1.52503e-05
 Reference value :  1.52503e-05
 Reference value :  1.52506e-05
 Reference value :  1.52508e-05
 Reference value :  1.52511e-05
 Reference value :  1.52515e-05
 Reference value :  1.52520e-05
 Reference value :  1.52524e-05
 Reference value :  1.52531e-05
 Reference value :  1.52543e-05
 Reference value :  1.52554e-05
 Reference value :  1.52562e-05
 Reference value :  1.52577e-05
 Reference value :  1.52587e-05
 Reference value :  1.52615e-05
 Reference value :  1.52713e-05
 Reference value :  1.52893e-05
 Reference value :  1.53728e-05
 Reference value :  1.55010e-05
 Reference value :  1.55031e-05
 Reference value :  1.55042e-05
 Reference value :  1.55061e-05
 Reference value :  1.55077e-05
 Reference value :  1.55101e-05
 Reference value :  1.55111e-05
 Reference value :  1.55133e-05
 Reference value :  1.55142e-05
 Reference value :  1.55163e-05
 Reference value :  1.55183e-05
 Reference value :  1.55194e-05
 Reference value :  1.55225e-05
 Reference value :  1.55355e-05
 Reference value :  1.55586e-05
 Reference value :  1.56521e-05
 Reference value :  1.57501e-05
 Reference value :  1.57502e-05
 Reference value :  1.57502e-05
 Reference value :  1.57503e-05
 Reference value :  1.57506e-05
 Reference value :  1.57511e-05
 Reference value :  1.57514e-05
 Reference value :  1.57517e-05
 Reference value :  1.57527e-05
 Reference value :  1.57538e-05
 Reference value :  1.57550e-05
 Reference value :  1.57565e-05
 Reference value :  1.57620e-05
 Reference value :  1.57865e-05
 Reference value :  1.59766e-05
 Reference value :  1.60000e-05
 Reference value :  1.60001e-05
 Reference value :  1.60002e-05
 Reference value :  1.60003e-05
 Reference value :  1.60010e-05
 Reference value :  1.60019e-05
 Reference value :  1.60029e-05
 Reference value :  1.60035e-05
 Reference value :  1.60047e-05
 Reference value :  1.60060e-05
 Reference value :  1.60077e-05
 Reference value :  1.60097e-05
 Reference value :  1.60120e-05
 Reference value :  1.60199e-05
 Reference value :  1.60572e-05
 Reference value :  1.62501e-05
 Reference value :  1.62501e-05
 Reference value :  1.62502e-05
 Reference value :  1.62502e-05
 Reference value :  1.62503e-05
 Reference value :  1.62506e-05
 Reference value :  1.62511e-05
 Reference value :  1.62515e-05
 Reference value :  1.62524e-05
 Reference value :  1.62537e-05
 Reference value :  1.62543e-05
 Reference value :  1.62554e-05
 Reference value :  1.62562e-05
 Reference value :  1.62577e-05
 Reference value :  1.62598e-05
 Reference value :  1.62637e-05
 Reference value :  1.62796e-05
 Reference value :  1.63407e-05
 Reference value :  1.65000e-05
 Reference value :  1.65000e-05
 Reference value :  1.65001e-05
 Reference value :  1.65001e-05
 Reference value :  1.65002e-05
 Reference value :  1.65003e-05
 Reference value :  1.65010e-05
 Reference value :  1.65018e-05
 Reference value :  1.65029e-05
 Reference value :  1.65035e-05
 Reference value :  1.65047e-05
 Reference value :  1.65053e-05
 Reference value :  1.65066e-05
 Reference value :  1.65082e-05
 Reference value :  1.65098e-05
 Reference value :  1.65116e-05
 Reference value :  1.65150e-05
 Reference value :  1.65194e-05
 Reference value :  1.65220e-05
 Reference value :  1.65237e-05
 Reference value :  1.65283e-05
 Reference value :  1.65405e-05
 Reference value :  1.65866e-05
 Reference value :  1.67501e-05
 Reference value :  1.67501e-05
 Reference value :  1.67502e-05
 Reference value :  1.67503e-05
 Reference value :  1.67504e-05
 Reference value :  1.67508e-05
 Reference value :  1.67516e-05
 Reference value :  1.67525e-05
 Reference value :  1.67539e-05
 Reference value :  1.67558e-05
 Reference value :  1.67584e-05
 Reference value :  1.67632e-05
 Reference value :  1.67899e-05
 Reference value :  1.70000e-05
 Reference value :  1.70021e-05
 Reference value :  1.70063e-05
 Reference value :  1.70085e-05
 Reference value :  1.70131e-05
 Reference value :  1.70188e-05
 Reference value :  1.70277e-05
 Reference value :  1.70308e-05
 Reference value :  1.70334e-05
 Reference value :  1.70352e-05
 Reference value :  1.70382e-05
 Reference value :  1.70412e-05
 Reference value :  1.70459e-05
 Reference value :  1.70525e-05
 Reference value :  1.70672e-05
 Reference value :  1.70973e-05
 Reference value :  1.71420e-05
 Reference value :  1.72121e-05
 Reference value :  1.72501e-05
 Reference value :  1.72502e-05
 Reference value :  1.72502e-05
 Reference value :  1.72503e-05
 Reference value :  1.72506e-05
 Reference value :  1.72514e-05
 Reference value :  1.72518e-05
 Reference value :  1.72528e-05
 Reference value :  1.72538e-05
 Reference value :  1.72549e-05
 Reference value :  1.72563e-05
 Reference value :  1.72618e-05
 Reference value :  1.72830e-05
 Reference value :  1.74520e-05
 Reference value :  1.75000e-05
 Reference value :  1.75001e-05
 Reference value :  1.75002e-05
 Reference value :  1.75003e-05
 Reference value :  1.75009e-05
 Reference value :  1.75016e-05
 Reference value :  1.75026e-05
 Reference value :  1.75031e-05
 Reference value :  1.75042e-05
 Reference value :  1.75057e-05
 Reference value :  1.75084e-05
 Reference value :  1.75096e-05
 Reference value :  1.75123e-05
 Reference value :  1.75137e-05
 Reference value :  1.75173e-05
 Reference value :  1.75236e-05
 Reference value :  1.75543e-05
 Reference value :  1.76252e-05
 Reference value :  1.77501e-05
 Reference value :  1.77501e-05
 Reference value :  1.77502e-05
 Reference value :  1.77503e-05
 Reference value :  1.77506e-05
 Reference value :  1.77514e-05
 Reference value :  1.77518e-05
 Reference value :  1.77528e-05
 Reference value :  1.77540e-05
 Reference value :  1.77552e-05
 Reference value :  1.77567e-05
 Reference value :  1.77583e-05
 Reference value :  1.77609e-05
 Reference value :  1.77697e-05
 Reference value :  1.77826e-05
 Reference value :  1.78062e-05
 Reference value :  1.78488e-05
 Reference value :  1.78814e-05
 Reference value :  1.79427e-05
 Reference value :  1.80011e-05
 Reference value :  1.80042e-05
 Reference value :  1.80061e-05
 Reference value :  1.80078e-05
 Reference value :  1.80097e-05
 Reference value :  1.80106e-05
 Reference value :  1.80126e-05
 Reference value :  1.80143e-05
 Reference value :  1.80160e-05
 Reference value :  1.80178e-05
 Reference value :  1.80198e-05
 Reference value :  1.80273e-05
 Reference value :  1.80412e-05
 Reference value :  1.80487e-05
 Reference value :  1.80540e-05
 Reference value :  1.80625e-05
 Reference value :  1.80744e-05
 Reference value :  1.80812e-05
 Reference value :  1.80971e-05
 Reference value :  1.81238e-05
 Reference value :  1.82501e-05
 Reference value :  1.82501e-05
 Reference value :  1.82502e-05
 Reference value :  1.82503e-05
 Reference value :  1.82504e-05
 Reference value :  1.82509e-05
 Reference value :  1.82518e-05
 Reference value :  1.82528e-05
 Reference value :  1.82539e-05
 Reference value :  1.82550e-05
 Reference value :  1.82556e-05
 Reference value :  1.82577e-05
 Reference value :  1.82619e-05
 Reference value :  1.82840e-05
 Reference value :  1.83596e-05
 Reference value :  1.85000e-05
 Reference value :  1.85001e-05
 Reference value :  1.85001e-05
 Reference value :  1.85002e-05
 Reference value :  1.85003e-05
 Reference value :  1.85009e-05
 Reference value :  1.85016e-05
 Reference value :  1.85026e-05
 Reference value :  1.85031e-05
 Reference value :  1.85042e-05
 Reference value :  1.85058e-05
 Reference value :  1.85064e-05
 Reference value :  1.85080e-05
 Reference value :  1.85099e-05
 Reference value :  1.85123e-05
 Reference value :  1.85238e-05
 Reference value :  1.85827e-05
 Reference value :  1.87501e-05
 Reference value :  1.87502e-05
 Reference value :  1.87502e-05
 Reference value :  1.87503e-05
 Reference value :  1.87506e-05
 Reference value :  1.87514e-05
 Reference value :  1.87518e-05
 Reference value :  1.87528e-05
 Reference value :  1.87540e-05
 Reference value :  1.87552e-05
 Reference value :  1.87567e-05
 Reference value :  1.87629e-05
 Reference value :  1.87897e-05
 Reference value :  1.88718e-05
 Reference value :  1.90000e-05
 Reference value :  1.90001e-05
 Reference value :  1.90001e-05
 Reference value :  1.90002e-05
 Reference value :  1.90003e-05
 Reference value :  1.90009e-05
 Reference value :  1.90016e-05
 Reference value :  1.90026e-05
 Reference value :  1.90031e-05
 Reference value :  1.90042e-05
 Reference value :  1.90053e-05
 Reference value :  1.90068e-05
 Reference value :  1.90092e-05
 Reference value :  1.90128e-05
 Reference value :  1.90141e-05
 Reference value :  1.90166e-05
 Reference value :  1.90192e-05
 Reference value :  1.90229e-05
 Reference value :  1.90364e-05
 Reference value :  1.90989e-05
 Reference value :  1.92501e-05
 Reference value :  1.92502e-05
 Reference value :  1.92502e-05
 Reference value :  1.92504e-05
 Reference value :  1.92509e-05
 Reference value :  1.92518e-05
 Reference value :  1.92528e-05
 Reference value :  1.92540e-05
 Reference value :  1.92552e-05
 Reference value :  1.92559e-05
 Reference value :  1.92580e-05
 Reference value :  1.92664e-05
 Reference value :  1.92888e-05
 Reference value :  1.94756e-05
 Reference value :  1.95004e-05
 Reference value :  1.95017e-05
 Reference value :  1.95027e-05
 Reference value :  1.95039e-05
 Reference value :  1.95046e-05
 Reference value :  1.95060e-05
 Reference value :  1.95078e-05
 Reference value :  1.95097e-05
 Reference value :  1.95107e-05
 Reference value :  1.95142e-05
 Reference value :  1.95444e-05
 Reference value :  1.97501e-05
 Reference value :  1.97501e-05
 Reference value :  1.97502e-05
 Reference value :  1.97503e-05
 Reference value :  1.97504e-05
 Reference value :  1.97509e-05
 Reference value :  1.97518e-05
 Reference value :  1.97528e-05
 Reference value :  1.97535e-05
 Reference value :  1.97540e-05
 Reference value :  1.97552e-05
 Reference value :  1.97567e-05
 Reference value :  1.97628e-05
 Reference value :  1.97897e-05
 Reference value :  1.98720e-05
 Reference value :  2.00000e-05
 Reference value :  2.00001e-05
 Reference value :  2.00001e-05
 Reference value :  2.00002e-05
 Reference value :  2.00003e-05
 Reference value :  2.00009e-05
 Reference value :  2.00016e-05
 Reference value :  2.00026e-05
 Reference value :  2.00031e-05
 Reference value :  2.00042e-05
 Reference value :  2.00053e-05
 Reference value :  2.00068e-05
 Reference value :  2.00092e-05
 Reference value :  2.00112e-05
 Reference value :  2.00128e-05
 Reference value :  2.00141e-05
 Reference value :  2.00166e-05
 Reference value :  2.00192e-05
 Reference value :  2.00229e-05
 Reference value :  2.00363e-05
 Reference value :  2.00674e-05
 Reference value :  2.01342e-05
 Reference value :  2.02501e-05
 Reference value :  2.02501e-05
 Reference value :  2.02502e-05
 Reference value :  2.02503e-05
 Reference value :  2.02504e-05
 Reference value :  2.02509e-05
 Reference value :  2.02518e-05
 Reference value :  2.02528e-05
 Reference value :  2.02535e-05
 Reference value :  2.02540e-05
 Reference value :  2.02552e-05
 Reference value :  2.02559e-05
 Reference value :  2.02580e-05
 Reference value :  2.02664e-05
 Reference value :  2.03155e-05
 Reference value :  2.05000e-05
 Reference value :  2.05004e-05
 Reference value :  2.05012e-05
 Reference value :  2.05017e-05
 Reference value :  2.05027e-05
 Reference value :  2.05033e-05
 Reference value :  2.05039e-05
 Reference value :  2.05046e-05
 Reference value :  2.05060e-05
 Reference value :  2.05079e-05
 Reference value :  2.05097e-05
 Reference value :  2.05108e-05
 Reference value :  2.05190e-05
 Reference value :  2.05793e-05
 Reference value :  2.07501e-05
 Reference value :  2.07501e-05
 Reference value :  2.07502e-05
 Reference value :  2.07502e-05
 Reference value :  2.07504e-05
 Reference value :  2.07509e-05
 Reference value :  2.07518e-05
 Reference value :  2.07528e-05
 Reference value :  2.07535e-05
 Reference value :  2.07540e-05
 Reference value :  2.07552e-05
 Reference value :  2.07567e-05
 Reference value :  2.07628e-05
 Reference value :  2.07897e-05
 Reference value :  2.09816e-05
 Reference value :  2.10000e-05
 Reference value :  2.10001e-05
 Reference value :  2.10001e-05
 Reference value :  2.10002e-05
 Reference value :  2.10003e-05
 Reference value :  2.10009e-05
 Reference value :  2.10016e-05
 Reference value :  2.10026e-05
 Reference value :  2.10031e-05
 Reference value :  2.10042e-05
 Reference value :  2.10053e-05
 Reference value :  2.10068e-05
 Reference value :  2.10092e-05
 Reference value :  2.10127e-05
 Reference value :  2.10140e-05
 Reference value :  2.10165e-05
 Reference value :  2.10191e-05
 Reference value :  2.10225e-05
 Reference value :  2.10289e-05
 Reference value :  2.10425e-05
 Reference value :  2.10587e-05
 Reference value :  2.10647e-05
 Reference value :  2.10765e-05
 Reference value :  2.10904e-05
 Reference value :  2.10973e-05
 Reference value :  2.11070e-05
 Reference value :  2.11146e-05
 Reference value :  2.11273e-05
 Reference value :  2.11462e-05
 Reference value :  2.11788e-05
 Reference value :  2.12278e-05
 Reference value :  2.12501e-05
 Reference value :  2.12502e-05
 Reference value :  2.12502e-05
 Reference value :  2.12503e-05
 Reference value :  2.12506e-05
 Reference value :  2.12511e-05
 Reference value :  2.12515e-05
 Reference value :  2.12524e-05
 Reference value :  2.12537e-05
 Reference value :  2.12543e-05
 Reference value :  2.12554e-05
 Reference value :  2.12562e-05
 Reference value :  2.12584e-05
 Reference value :  2.12680e-05
 Reference value :  2.13240e-05
 Reference value :  2.15000e-05
 Reference value :  2.15000e-05
 Reference value :  2.15001e-05
 Reference value :  2.15002e-05
 Reference value :  2.15003e-05
 Reference value :  2.15010e-05
 Reference value :  2.15018e-05
 Reference value :  2.15029e-05
 Reference value :  2.15035e-05
 Reference value :  2.15047e-05
 Reference value :  2.15061e-05
 Reference value :  2.15077e-05
 Reference value :  2.15086e-05
 Reference value :  2.15106e-05
 Reference value :  2.15133e-05
 Reference value :  2.15258e-05
 Reference value :  2.15913e-05
 Reference value :  2.17501e-05
 Reference value :  2.17502e-05
 Reference value :  2.17502e-05
 Reference value :  2.17503e-05
 Reference value :  2.17506e-05
 Reference value :  2.17511e-05
 Reference value :  2.17515e-05
 Reference value :  2.17524e-05
 Reference value :  2.17537e-05
 Reference value :  2.17543e-05
 Reference value :  2.17554e-05
 Reference value :  2.17562e-05
 Reference value :  2.17584e-05
 Reference value :  2.17680e-05
 Reference value :  2.18226e-05
 Reference value :  2.20000e-05
 Reference value :  2.20003e-05
 Reference value :  2.20011e-05
 Reference value :  2.20018e-05
 Reference value :  2.20028e-05
 Reference value :  2.20034e-05
 Reference value :  2.20047e-05
 Reference value :  2.20052e-05
 Reference value :  2.20065e-05
 Reference value :  2.20089e-05
 Reference value :  2.20109e-05
 Reference value :  2.20123e-05
 Reference value :  2.20139e-05
 Reference value :  2.20152e-05
 Reference value :  2.20180e-05
 Reference value :  2.20210e-05
 Reference value :  2.20260e-05
 Reference value :  2.20360e-05
 Reference value :  2.20496e-05
 Reference value :  2.20591e-05
 Reference value :  2.20652e-05
 Reference value :  2.20787e-05
 Reference value :  2.20926e-05
 Reference value :  2.21507e-05
 Reference value :  2.22501e-05
 Reference value :  2.22502e-05
 Reference value :  2.22502e-05
 Reference value :  2.22503e-05
 Reference value :  2.22506e-05
 Reference value :  2.22511e-05
 Reference value :  2.22515e-05
 Reference value :  2.22524e-05
 Reference value :  2.22537e-05
 Reference value :  2.22543e-05
 Reference value :  2.22554e-05
 Reference value :  2.22562e-05
 Reference value :  2.22587e-05
 Reference value :  2.22688e-05
 Reference value :  2.23294e-05
 Reference value :  2.25000e-05
 Reference value :  2.25000e-05
 Reference value :  2.25001e-05
 Reference value :  2.25001e-05
 Reference value :  2.25002e-05
 Reference value :  2.25006e-05
 Reference value :  2.25014e-05
 Reference value :  2.25024e-05
 Reference value :  2.25035e-05
 Reference value :  2.25047e-05
 Reference value :  2.25060e-05
 Reference value :  2.25077e-05
 Reference value :  2.25097e-05
 Reference value :  2.25120e-05
 Reference value :  2.25199e-05
 Reference value :  2.25574e-05
 Reference value :  2.27501e-05
 Reference value :  2.27501e-05
 Reference value :  2.27502e-05
 Reference value :  2.27502e-05
 Reference value :  2.27503e-05
 Reference value :  2.27506e-05
 Reference value :  2.27511e-05
 Reference value :  2.27515e-05
 Reference value :  2.27520e-05
 Reference value :  2.27531e-05
 Reference value :  2.27543e-05
 Reference value :  2.27554e-05
 Reference value :  2.27562e-05
 Reference value :  2.27577e-05
 Reference value :  2.27587e-05
 Reference value :  2.27616e-05
 Reference value :  2.27667e-05
 Reference value :  2.27897e-05
 Reference value :  2.28746e-05
 Reference value :  2.30000e-05
 Reference value :  2.30010e-05
 Reference value :  2.30040e-05
 Reference value :  2.30059e-05
 Reference value :  2.30075e-05
 Reference value :  2.30097e-05
 Reference value :  2.30106e-05
 Reference value :  2.30125e-05
 Reference value :  2.30136e-05
 Reference value :  2.30144e-05
 Reference value :  2.30162e-05
 Reference value :  2.30171e-05
 Reference value :  2.30192e-05
 Reference value :  2.30222e-05
 Reference value :  2.30256e-05
 Reference value :  2.30317e-05
 Reference value :  2.30549e-05
 Reference value :  2.31014e-05
 Reference value :  2.32501e-05
 Reference value :  2.32501e-05
 Reference value :  2.32502e-05
 Reference value :  2.32503e-05
 Reference value :  2.32504e-05
 Reference value :  2.32508e-05
 Reference value :  2.32514e-05
 Reference value :  2.32517e-05
 Reference value :  2.32527e-05
 Reference value :  2.32539e-05
 Reference value :  2.32551e-05
 Reference value :  2.32566e-05
 Reference value :  2.32597e-05
 Reference value :  2.32660e-05
 Reference value :  2.33177e-05
 Reference value :  2.35000e-05
 Reference value :  2.35000e-05
 Reference value :  2.35001e-05
 Reference value :  2.35002e-05
 Reference value :  2.35003e-05
 Reference value :  2.35010e-05
 Reference value :  2.35019e-05
 Reference value :  2.35029e-05
 Reference value :  2.35035e-05
 Reference value :  2.35047e-05
 Reference value :  2.35061e-05
 Reference value :  2.35077e-05
 Reference value :  2.35096e-05
 Reference value :  2.35106e-05
 Reference value :  2.35133e-05
 Reference value :  2.35194e-05
 Reference value :  2.35537e-05
 Reference value :  2.37501e-05
 Reference value :  2.37501e-05
 Reference value :  2.37502e-05
 Reference value :  2.37503e-05
 Reference value :  2.37504e-05
 Reference value :  2.37508e-05
 Reference value :  2.37515e-05
 Reference value :  2.37524e-05
 Reference value :  2.37531e-05
 Reference value :  2.37543e-05
 Reference value :  2.37554e-05
 Reference value :  2.37562e-05
 Reference value :  2.37585e-05
 Reference value :  2.37635e-05
 Reference value :  2.37932e-05
 Reference value :  2.39877e-05
 Reference value :  2.40000e-05
 Reference value :  2.40001e-05
 Reference value :  2.40001e-05
 Reference value :  2.40002e-05
 Reference value :  2.40003e-05
 Reference value :  2.40010e-05
 Reference value :  2.40018e-05
 Reference value :  2.40029e-05
 Reference value :  2.40035e-05
 Reference value :  2.40047e-05
 Reference value :  2.40052e-05
 Reference value :  2.40065e-05
 Reference value :  2.40088e-05
 Reference value :  2.40107e-05
 Reference value :  2.40122e-05
 Reference value :  2.40150e-05
 Reference value :  2.40176e-05
 Reference value :  2.40203e-05
 Reference value :  2.40245e-05
 Reference value :  2.40430e-05
 Reference value :  2.41395e-05
 Reference value :  2.42501e-05
 Reference value :  2.42502e-05
 Reference value :  2.42502e-05
 Reference value :  2.42503e-05
 Reference value :  2.42506e-05
 Reference value :  2.42511e-05
 Reference value :  2.42515e-05
 Reference value :  2.42524e-05
 Reference value :  2.42538e-05
 Reference value :  2.42543e-05
 Reference value :  2.42555e-05
 Reference value :  2.42562e-05
 Reference value :  2.42586e-05
 Reference value :  2.42686e-05
 Reference value :  2.43301e-05
 Reference value :  2.45000e-05
 Reference value :  2.45001e-05
 Reference value :  2.45001e-05
 Reference value :  2.45002e-05
 Reference value :  2.45006e-05
 Reference value :  2.45014e-05
 Reference value :  2.45024e-05
 Reference value :  2.45035e-05
 Reference value :  2.45047e-05
 Reference value :  2.45061e-05
 Reference value :  2.45077e-05
 Reference value :  2.45096e-05
 Reference value :  2.45119e-05
 Reference value :  2.45195e-05
 Reference value :  2.45541e-05
 Reference value :  2.47501e-05
 Reference value :  2.47501e-05
 Reference value :  2.47502e-05
 Reference value :  2.47503e-05
 Reference value :  2.47504e-05
 Reference value :  2.47508e-05
 Reference value :  2.47515e-05
 Reference value :  2.47524e-05
 Reference value :  2.47537e-05
 Reference value :  2.47543e-05
 Reference value :  2.47554e-05
 Reference value :  2.47562e-05
 Reference value :  2.47584e-05
 Reference value :  2.47680e-05
 Reference value :  2.48226e-05
 Reference value :  2.50000e-05
 Reference value :  2.50000e-05
 Reference value :  2.50001e-05
 Reference value :  2.50001e-05
 Reference value :  2.50002e-05
 Reference value :  2.50006e-05
 Reference value :  2.50014e-05
 Reference value :  2.50024e-05
 Reference value :  2.50035e-05
 Reference value :  2.50047e-05
 Reference value :  2.50052e-05
 Reference value :  2.50065e-05
 Reference value :  2.50073e-05
 Reference value :  2.50080e-05
 Reference value :  2.50089e-05
 Reference value :  2.50099e-05
 Reference value :  2.50172e-05
 Reference value :  2.50675e-05
 Reference value :  2.52501e-05
 Reference value :  2.52501e-05
 Reference value :  2.52502e-05
 Reference value :  2.52503e-05
 Reference value :  2.52504e-05
 Reference value :  2.52508e-05
 Reference value :  2.52516e-05
 Reference value :  2.52525e-05
 Reference value :  2.52539e-05
 Reference value :  2.52558e-05
 Reference value :  2.52585e-05
 Reference value :  2.52670e-05
 Reference value :  2.53204e-05
 Reference value :  2.55021e-05
 Reference value :  2.55063e-05
 Reference value :  2.55085e-05
 Reference value :  2.55131e-05
 Reference value :  2.55188e-05
 Reference value :  2.55277e-05
 Reference value :  2.55309e-05
 Reference value :  2.55331e-05
 Reference value :  2.55349e-05
 Reference value :  2.55377e-05
 Reference value :  2.55403e-05
 Reference value :  2.55412e-05
 Reference value :  2.55431e-05
 Reference value :  2.55462e-05
 Reference value :  2.55537e-05
 Reference value :  2.55575e-05
 Reference value :  2.55659e-05
 Reference value :  2.55883e-05
 Reference value :  2.56286e-05
 Reference value :  2.56868e-05
 Reference value :  2.57501e-05
 Reference value :  2.57502e-05
 Reference value :  2.57502e-05
 Reference value :  2.57503e-05
 Reference value :  2.57506e-05
 Reference value :  2.57514e-05
 Reference value :  2.57518e-05
 Reference value :  2.57528e-05
 Reference value :  2.57538e-05
 Reference value :  2.57549e-05
 Reference value :  2.57563e-05
 Reference value :  2.57592e-05
 Reference value :  2.57709e-05
 Reference value :  2.58555e-05
 Reference value :  2.60000e-05
 Reference value :  2.60000e-05
 Reference value :  2.60001e-05
 Reference value :  2.60002e-05
 Reference value :  2.60003e-05
 Reference value :  2.60005e-05
 Reference value :  2.60009e-05
 Reference value :  2.60012e-05
 Reference value :  2.60016e-05
 Reference value :  2.60026e-05
 Reference value :  2.60031e-05
 Reference value :  2.60042e-05
 Reference value :  2.60057e-05
 Reference value :  2.60084e-05
 Reference value :  2.60096e-05
 Reference value :  2.60108e-05
 Reference value :  2.60123e-05
 Reference value :  2.60154e-05
 Reference value :  2.60241e-05
 Reference value :  2.60543e-05
 Reference value :  2.61209e-05
 Reference value :  2.61666e-05
 Reference value :  2.62116e-05
 Reference value :  2.62411e-05
 Reference value :  2.62501e-05
 Reference value :  2.62501e-05
 Reference value :  2.62502e-05
 Reference value :  2.62502e-05
 Reference value :  2.62503e-05
 Reference value :  2.62506e-05
 Reference value :  2.62514e-05
 Reference value :  2.62518e-05
 Reference value :  2.62528e-05
 Reference value :  2.62540e-05
 Reference value :  2.62552e-05
 Reference value :  2.62567e-05
 Reference value :  2.62584e-05
 Reference value :  2.62612e-05
 Reference value :  2.62705e-05
 Reference value :  2.63042e-05
 Reference value :  2.64435e-05
 Reference value :  2.65009e-05
 Reference value :  2.65038e-05
 Reference value :  2.65056e-05
 Reference value :  2.65073e-05
 Reference value :  2.65096e-05
 Reference value :  2.65106e-05
 Reference value :  2.65125e-05
 Reference value :  2.65143e-05
 Reference value :  2.65163e-05
 Reference value :  2.65183e-05
 Reference value :  2.65209e-05
 Reference value :  2.65310e-05
 Reference value :  2.65462e-05
 Reference value :  2.65554e-05
 Reference value :  2.65631e-05
 Reference value :  2.65670e-05
 Reference value :  2.65751e-05
 Reference value :  2.65864e-05
 Reference value :  2.66001e-05
 Reference value :  2.66235e-05
 Reference value :  2.67183e-05
 Reference value :  2.67501e-05
 Reference value :  2.67502e-05
 Reference value :  2.67503e-05
 Reference value :  2.67504e-05
 Reference value :  2.67509e-05
 Reference value :  2.67518e-05
 Reference value :  2.67528e-05
 Reference value :  2.67539e-05
 Reference value :  2.67550e-05
 Reference value :  2.67556e-05
 Reference value :  2.67577e-05
 Reference value :  2.67620e-05
 Reference value :  2.67844e-05
 Reference value :  2.68613e-05
 Reference value :  2.70000e-05
 Reference value :  2.70001e-05
 Reference value :  2.70001e-05
 Reference value :  2.70002e-05
 Reference value :  2.70005e-05
 Reference value :  2.70012e-05
 Reference value :  2.70016e-05
 Reference value :  2.70026e-05
 Reference value :  2.70031e-05
 Reference value :  2.70042e-05
 Reference value :  2.70058e-05
 Reference value :  2.70064e-05
 Reference value :  2.70080e-05
 Reference value :  2.70099e-05
 Reference value :  2.70123e-05
 Reference value :  2.70238e-05
 Reference value :  2.70825e-05
 Reference value :  2.72501e-05
 Reference value :  2.72502e-05
 Reference value :  2.72502e-05
 Reference value :  2.72504e-05
 Reference value :  2.72509e-05
 Reference value :  2.72518e-05
 Reference value :  2.72528e-05
 Reference value :  2.72540e-05
 Reference value :  2.72552e-05
 Reference value :  2.72567e-05
 Reference value :  2.72601e-05
 Reference value :  2.72748e-05
 Reference value :  2.73724e-05
 Reference value :  2.75000e-05
 Reference value :  2.75001e-05
 Reference value :  2.75001e-05
 Reference value :  2.75002e-05
 Reference value :  2.75003e-05
 Reference value :  2.75009e-05
 Reference value :  2.75016e-05
 Reference value :  2.75026e-05
 Reference value :  2.75031e-05
 Reference value :  2.75042e-05
 Reference value :  2.75053e-05
 Reference value :  2.75068e-05
 Reference value :  2.75092e-05
 Reference value :  2.75128e-05
 Reference value :  2.75141e-05
 Reference value :  2.75166e-05
 Reference value :  2.75192e-05
 Reference value :  2.75229e-05
 Reference value :  2.75364e-05
 Reference value :  2.75698e-05
 Reference value :  2.76667e-05
 Reference value :  2.77501e-05
 Reference value :  2.77502e-05
 Reference value :  2.77503e-05
 Reference value :  2.77504e-05
 Reference value :  2.77509e-05
 Reference value :  2.77518e-05
 Reference value :  2.77528e-05
 Reference value :  2.77540e-05
 Reference value :  2.77552e-05
 Reference value :  2.77559e-05
 Reference value :  2.77580e-05
 Reference value :  2.77664e-05
 Reference value :  2.78155e-05
 Reference value :  2.80000e-05
 Reference value :  2.80004e-05
 Reference value :  2.80017e-05
 Reference value :  2.80027e-05
 Reference value :  2.80039e-05
 Reference value :  2.80054e-05
 Reference value :  2.80060e-05
 Reference value :  2.80079e-05
 Reference value :  2.80098e-05
 Reference value :  2.80109e-05
 Reference value :  2.80190e-05
 Reference value :  2.80781e-05
 Reference value :  2.82501e-05
 Reference value :  2.82502e-05
 Reference value :  2.82502e-05
 Reference value :  2.82503e-05
 Reference value :  2.82506e-05
 Reference value :  2.82514e-05
 Reference value :  2.82518e-05
 Reference value :  2.82528e-05
 Reference value :  2.82540e-05
 Reference value :  2.82552e-05
 Reference value :  2.82567e-05
 Reference value :  2.82601e-05
 Reference value :  2.82749e-05
 Reference value :  2.83718e-05
 Reference value :  2.85000e-05
 Reference value :  2.85001e-05
 Reference value :  2.85001e-05
 Reference value :  2.85002e-05
 Reference value :  2.85005e-05
 Reference value :  2.85012e-05
 Reference value :  2.85016e-05
 Reference value :  2.85026e-05
 Reference value :  2.85031e-05
 Reference value :  2.85042e-05
 Reference value :  2.85053e-05
 Reference value :  2.85068e-05
 Reference value :  2.85092e-05
 Reference value :  2.85128e-05
 Reference value :  2.85141e-05
 Reference value :  2.85165e-05
 Reference value :  2.85192e-05
 Reference value :  2.85229e-05
 Reference value :  2.85295e-05
 Reference value :  2.85483e-05
 Reference value :  2.85955e-05
 Reference value :  2.86528e-05
 Reference value :  2.87501e-05
 Reference value :  2.87501e-05
 Reference value :  2.87502e-05
 Reference value :  2.87503e-05
 Reference value :  2.87504e-05
 Reference value :  2.87509e-05
 Reference value :  2.87518e-05
 Reference value :  2.87528e-05
 Reference value :  2.87540e-05
 Reference value :  2.87552e-05
 Reference value :  2.87559e-05
 Reference value :  2.87580e-05
 Reference value :  2.87664e-05
 Reference value :  2.88155e-05
 Reference value :  2.90000e-05
 Reference value :  2.90004e-05
 Reference value :  2.90017e-05
 Reference value :  2.90027e-05
 Reference value :  2.90039e-05
 Reference value :  2.90054e-05
 Reference value :  2.90060e-05
 Reference value :  2.90079e-05
 Reference value :  2.90098e-05
 Reference value :  2.90108e-05
 Reference value :  2.90190e-05
 Reference value :  2.90787e-05
 Reference value :  2.92501e-05
 Reference value :  2.92502e-05
 Reference value :  2.92502e-05
 Reference value :  2.92504e-05
 Reference value :  2.92509e-05
 Reference value :  2.92518e-05
 Reference value :  2.92528e-05
 Reference value :  2.92540e-05
 Reference value :  2.92552e-05
 Reference value :  2.92567e-05
 Reference value :  2.92601e-05
 Reference value :  2.92748e-05
 Reference value :  2.93718e-05
 Reference value :  2.95000e-05
 Reference value :  2.95001e-05
 Reference value :  2.95001e-05
 Reference value :  2.95002e-05
 Reference value :  2.95003e-05
 Reference value :  2.95009e-05
 Reference value :  2.95016e-05
 Reference value :  2.95026e-05
 Reference value :  2.95031e-05
 Reference value :  2.95042e-05
 Reference value :  2.95053e-05
 Reference value :  2.95068e-05
 Reference value :  2.95092e-05
 Reference value :  2.95127e-05
 Reference value :  2.95140e-05
 Reference value :  2.95165e-05
 Reference value :  2.95191e-05
 Reference value :  2.95225e-05
 Reference value :  2.95347e-05
 Reference value :  2.95420e-05
 Reference value :  2.95567e-05
 Reference value :  2.95621e-05
 Reference value :  2.95740e-05
 Reference value :  2.95880e-05
 Reference value :  2.96020e-05
 Reference value :  2.96315e-05
 Reference value :  2.96430e-05
 Reference value :  2.96505e-05
 Reference value :  2.96670e-05
 Reference value :  2.96821e-05
 Reference value :  2.97501e-05
 Reference value :  2.97501e-05
 Reference value :  2.97502e-05
 Reference value :  2.97502e-05
 Reference value :  2.97503e-05
 Reference value :  2.97506e-05
 Reference value :  2.97511e-05
 Reference value :  2.97515e-05
 Reference value :  2.97524e-05
 Reference value :  2.97537e-05
 Reference value :  2.97543e-05
 Reference value :  2.97554e-05
 Reference value :  2.97562e-05
 Reference value :  2.97584e-05
 Reference value :  2.97635e-05
 Reference value :  2.97935e-05
 Reference value :  2.99979e-05
 Reference value :  3.00000e-05
 Reference value :  3.00001e-05
 Reference value :  3.00001e-05
 Reference value :  3.00002e-05
 Reference value :  3.00006e-05
 Reference value :  3.00014e-05
 Reference value :  3.00024e-05
 Reference value :  3.00035e-05
 Reference value :  3.00047e-05
 Reference value :  3.00061e-05
 Reference value :  3.00077e-05
 Reference value :  3.00096e-05
 Reference value :  3.00119e-05
 Reference value :  3.00195e-05
 Reference value :  3.00543e-05
 Reference value :  3.01628e-05
 Reference value :  3.02501e-05
 Reference value :  3.02502e-05
 Reference value :  3.02502e-05
 Reference value :  3.02503e-05
 Reference value :  3.02506e-05
 Reference value :  3.02511e-05
 Reference value :  3.02515e-05
 Reference value :  3.02524e-05
 Reference value :  3.02537e-05
 Reference value :  3.02543e-05
 Reference value :  3.02554e-05
 Reference value :  3.02562e-05
 Reference value :  3.02584e-05
 Reference value :  3.02680e-05
 Reference value :  3.03226e-05
 Reference value :  3.05000e-05
 Reference value :  3.05003e-05
 Reference value :  3.05011e-05
 Reference value :  3.05017e-05
 Reference value :  3.05028e-05
 Reference value :  3.05033e-05
 Reference value :  3.05045e-05
 Reference value :  3.05050e-05
 Reference value :  3.05063e-05
 Reference value :  3.05085e-05
 Reference value :  3.05102e-05
 Reference value :  3.05134e-05
 Reference value :  3.05146e-05
 Reference value :  3.05166e-05
 Reference value :  3.05188e-05
 Reference value :  3.05220e-05
 Reference value :  3.05296e-05
 Reference value :  3.05405e-05
 Reference value :  3.05465e-05
 Reference value :  3.05509e-05
 Reference value :  3.05602e-05
 Reference value :  3.05713e-05
 Reference value :  3.05921e-05
 Reference value :  3.06545e-05
 Reference value :  3.07501e-05
 Reference value :  3.07502e-05
 Reference value :  3.07502e-05
 Reference value :  3.07503e-05
 Reference value :  3.07506e-05
 Reference value :  3.07511e-05
 Reference value :  3.07515e-05
 Reference value :  3.07524e-05
 Reference value :  3.07537e-05
 Reference value :  3.07543e-05
 Reference value :  3.07554e-05
 Reference value :  3.07562e-05
 Reference value :  3.07587e-05
 Reference value :  3.07688e-05
 Reference value :  3.08308e-05
 Reference value :  3.10000e-05
 Reference value :  3.10000e-05
 Reference value :  3.10001e-05
 Reference value :  3.10001e-05
 Reference value :  3.10002e-05
 Reference value :  3.10006e-05
 Reference value :  3.10014e-05
 Reference value :  3.10024e-05
 Reference value :  3.10035e-05
 Reference value :  3.10047e-05
 Reference value :  3.10060e-05
 Reference value :  3.10077e-05
 Reference value :  3.10097e-05
 Reference value :  3.10120e-05
 Reference value :  3.10199e-05
 Reference value :  3.10572e-05
 Reference value :  3.12501e-05
 Reference value :  3.12501e-05
 Reference value :  3.12502e-05
 Reference value :  3.12503e-05
 Reference value :  3.12504e-05
 Reference value :  3.12508e-05
 Reference value :  3.12515e-05
 Reference value :  3.12524e-05
 Reference value :  3.12537e-05
 Reference value :  3.12543e-05
 Reference value :  3.12554e-05
 Reference value :  3.12562e-05
 Reference value :  3.12577e-05
 Reference value :  3.12598e-05
 Reference value :  3.12637e-05
 Reference value :  3.12796e-05
 Reference value :  3.13410e-05
 Reference value :  3.15000e-05
 Reference value :  3.15000e-05
 Reference value :  3.15001e-05
 Reference value :  3.15001e-05
 Reference value :  3.15002e-05
 Reference value :  3.15006e-05
 Reference value :  3.15014e-05
 Reference value :  3.15024e-05
 Reference value :  3.15035e-05
 Reference value :  3.15047e-05
 Reference value :  3.15053e-05
 Reference value :  3.15066e-05
 Reference value :  3.15085e-05
 Reference value :  3.15106e-05
 Reference value :  3.15128e-05
 Reference value :  3.15137e-05
 Reference value :  3.15155e-05
 Reference value :  3.15174e-05
 Reference value :  3.15184e-05
 Reference value :  3.15213e-05
 Reference value :  3.15266e-05
 Reference value :  3.15337e-05
 Reference value :  3.15423e-05
 Reference value :  3.15457e-05
 Reference value :  3.15533e-05
 Reference value :  3.15654e-05
 Reference value :  3.16030e-05
 Reference value :  3.17501e-05
 Reference value :  3.17501e-05
 Reference value :  3.17502e-05
 Reference value :  3.17503e-05
 Reference value :  3.17504e-05
 Reference value :  3.17508e-05
 Reference value :  3.17515e-05
 Reference value :  3.17524e-05
 Reference value :  3.17538e-05
 Reference value :  3.17543e-05
 Reference value :  3.17555e-05
 Reference value :  3.17562e-05
 Reference value :  3.17585e-05
 Reference value :  3.17685e-05
 Reference value :  3.18299e-05
 Reference value :  3.20000e-05
 Reference value :  3.20001e-05
 Reference value :  3.20001e-05
 Reference value :  3.20002e-05
 Reference value :  3.20003e-05
 Reference value :  3.20010e-05
 Reference value :  3.20019e-05
 Reference value :  3.20029e-05
 Reference value :  3.20035e-05
 Reference value :  3.20047e-05
 Reference value :  3.20061e-05
 Reference value :  3.20077e-05
 Reference value :  3.20096e-05
 Reference value :  3.20119e-05
 Reference value :  3.20194e-05
 Reference value :  3.20360e-05
 Reference value :  3.21599e-05
 Reference value :  3.22501e-05
 Reference value :  3.22502e-05
 Reference value :  3.22503e-05
 Reference value :  3.22504e-05
 Reference value :  3.22508e-05
 Reference value :  3.22515e-05
 Reference value :  3.22524e-05
 Reference value :  3.22537e-05
 Reference value :  3.22543e-05
 Reference value :  3.22554e-05
 Reference value :  3.22562e-05
 Reference value :  3.22584e-05
 Reference value :  3.22680e-05
 Reference value :  3.22931e-05
 Reference value :  3.24850e-05
 Reference value :  3.25000e-05
 Reference value :  3.25001e-05
 Reference value :  3.25002e-05
 Reference value :  3.25003e-05
 Reference value :  3.25010e-05
 Reference value :  3.25018e-05
 Reference value :  3.25029e-05
 Reference value :  3.25035e-05
 Reference value :  3.25047e-05
 Reference value :  3.25052e-05
 Reference value :  3.25065e-05
 Reference value :  3.25088e-05
 Reference value :  3.25122e-05
 Reference value :  3.25150e-05
 Reference value :  3.25177e-05
 Reference value :  3.25204e-05
 Reference value :  3.25224e-05
 Reference value :  3.25246e-05
 Reference value :  3.25334e-05
 Reference value :  3.25402e-05
 Reference value :  3.25441e-05
 Reference value :  3.25545e-05
 Reference value :  3.25747e-05
 Reference value :  3.26345e-05
 Reference value :  3.27501e-05
 Reference value :  3.27502e-05
 Reference value :  3.27502e-05
 Reference value :  3.27503e-05
 Reference value :  3.27504e-05
 Reference value :  3.27506e-05
 Reference value :  3.27511e-05
 Reference value :  3.27515e-05
 Reference value :  3.27524e-05
 Reference value :  3.27537e-05
 Reference value :  3.27543e-05
 Reference value :  3.27554e-05
 Reference value :  3.27562e-05
 Reference value :  3.27587e-05
 Reference value :  3.27689e-05
 Reference value :  3.28302e-05
 Reference value :  3.30000e-05
 Reference value :  3.30001e-05
 Reference value :  3.30001e-05
 Reference value :  3.30001e-05
 Reference value :  3.30001e-05
 Reference value :  3.30002e-05
 Reference value :  3.30002e-05
 Reference value :  3.30003e-05
 Reference value :  3.30006e-05
 Reference value :  3.30010e-05
 Reference value :  3.30014e-05
 Reference value :  3.30019e-05
 Reference value :  3.30024e-05
 Reference value :  3.30029e-05
 Reference value :  3.30035e-05
 Reference value :  3.30041e-05
 Reference value :  3.30047e-05
 Reference value :  3.30055e-05
 Reference value :  3.30060e-05
 Reference value :  3.30068e-05
 Reference value :  3.30077e-05
 Reference value :  3.30086e-05
 Reference value :  3.30097e-05
 Reference value :  3.30106e-05
 Reference value :  3.30120e-05
 Reference value :  3.30135e-05
 Reference value :  3.30199e-05
 Reference value :  3.30375e-05
 Reference value :  3.30974e-05
 Reference value :  3.31749e-05
 Reference value :  3.32501e-05
 Reference value :  3.32502e-05
 Reference value :  3.32502e-05
 Reference value :  3.32502e-05
 Reference value :  3.32503e-05
 Reference value :  3.32506e-05
 Reference value :  3.32511e-05
 Reference value :  3.32515e-05
 Reference value :  3.32524e-05
 Reference value :  3.32537e-05
 Reference value :  3.32542e-05
 Reference value :  3.32554e-05
 Reference value :  3.32562e-05
 Reference value :  3.32577e-05
 Reference value :  3.32586e-05
 Reference value :  3.32614e-05
 Reference value :  3.32707e-05
 Reference value :  3.32877e-05
 Reference value :  3.33273e-05
 Reference value :  3.35000e-05
 Reference value :  3.35012e-05
 Reference value :  3.35037e-05
 Reference value :  3.35049e-05
 Reference value :  3.35062e-05
 Reference value :  3.35072e-05
 Reference value :  3.35095e-05
 Reference value :  3.35103e-05
 Reference value :  3.35124e-05
 Reference value :  3.35159e-05
 Reference value :  3.35211e-05
 Reference value :  3.35312e-05
 Reference value :  3.35817e-05
 Reference value :  3.37020e-05
 Reference value :  3.37501e-05
 Reference value :  3.37502e-05
 Reference value :  3.37502e-05
 Reference value :  3.37503e-05
 Reference value :  3.37506e-05
 Reference value :  3.37511e-05
 Reference value :  3.37519e-05
 Reference value :  3.37530e-05
 Reference value :  3.37544e-05
 Reference value :  3.37562e-05
 Reference value :  3.37591e-05
 Reference value :  3.37691e-05
 Reference value :  3.37874e-05
 Reference value :  3.38706e-05
 Reference value :  3.40000e-05
 Reference value :  3.40001e-05
 Reference value :  3.40001e-05
 Reference value :  3.40002e-05
 Reference value :  3.40006e-05
 Reference value :  3.40014e-05
 Reference value :  3.40025e-05
 Reference value :  3.40037e-05
 Reference value :  3.40047e-05
 Reference value :  3.40059e-05
 Reference value :  3.40097e-05
 Reference value :  3.40235e-05
 Reference value :  3.40298e-05
 Reference value :  3.40339e-05
 Reference value :  3.40374e-05
 Reference value :  3.40394e-05
 Reference value :  3.40413e-05
 Reference value :  3.40424e-05
 Reference value :  3.40445e-05
 Reference value :  3.40499e-05
 Reference value :  3.40572e-05
 Reference value :  3.40653e-05
 Reference value :  3.40859e-05
 Reference value :  3.41213e-05
 Reference value :  3.41764e-05
 Reference value :  3.42501e-05
 Reference value :  3.42502e-05
 Reference value :  3.42502e-05
 Reference value :  3.42503e-05
 Reference value :  3.42504e-05
 Reference value :  3.42509e-05
 Reference value :  3.42518e-05
 Reference value :  3.42528e-05
 Reference value :  3.42540e-05
 Reference value :  3.42551e-05
 Reference value :  3.42558e-05
 Reference value :  3.42579e-05
 Reference value :  3.42659e-05
 Reference value :  3.42870e-05
 Reference value :  3.44680e-05
 Reference value :  3.45000e-05
 Reference value :  3.45001e-05
 Reference value :  3.45001e-05
 Reference value :  3.45002e-05
 Reference value :  3.45003e-05
 Reference value :  3.45009e-05
 Reference value :  3.45016e-05
 Reference value :  3.45026e-05
 Reference value :  3.45031e-05
 Reference value :  3.45042e-05
 Reference value :  3.45057e-05
 Reference value :  3.45083e-05
 Reference value :  3.45095e-05
 Reference value :  3.45121e-05
 Reference value :  3.45151e-05
 Reference value :  3.45236e-05
 Reference value :  3.45391e-05
 Reference value :  3.45548e-05
 Reference value :  3.46272e-05
 Reference value :  3.46637e-05
 Reference value :  3.46852e-05
 Reference value :  3.46987e-05
 Reference value :  3.47118e-05
 Reference value :  3.47342e-05
 Reference value :  3.47501e-05
 Reference value :  3.47502e-05
 Reference value :  3.47502e-05
 Reference value :  3.47503e-05
 Reference value :  3.47504e-05
 Reference value :  3.47509e-05
 Reference value :  3.47518e-05
 Reference value :  3.47528e-05
 Reference value :  3.47540e-05
 Reference value :  3.47552e-05
 Reference value :  3.47559e-05
 Reference value :  3.47574e-05
 Reference value :  3.47582e-05
 Reference value :  3.47591e-05
 Reference value :  3.47607e-05
 Reference value :  3.47690e-05
 Reference value :  3.47839e-05
 Reference value :  3.48744e-05
 Reference value :  3.50000e-05
 Reference value :  3.50001e-05
 Reference value :  3.50001e-05
 Reference value :  3.50002e-05
 Reference value :  3.50005e-05
 Reference value :  3.50012e-05
 Reference value :  3.50016e-05
 Reference value :  3.50026e-05
 Reference value :  3.50031e-05
 Reference value :  3.50042e-05
 Reference value :  3.50052e-05
 Reference value :  3.50065e-05
 Reference value :  3.50082e-05
 Reference value :  3.50102e-05
 Reference value :  3.50112e-05
 Reference value :  3.50122e-05
 Reference value :  3.50139e-05
 Reference value :  3.50159e-05
 Reference value :  3.50168e-05
 Reference value :  3.50190e-05
 Reference value :  3.50251e-05
 Reference value :  3.50492e-05
 Reference value :  3.50597e-05
 Reference value :  3.50702e-05
 Reference value :  3.50765e-05
 Reference value :  3.50908e-05
 Reference value :  3.51068e-05
 Reference value :  3.51146e-05
 Reference value :  3.51524e-05
 Reference value :  3.52501e-05
 Reference value :  3.52501e-05
 Reference value :  3.52502e-05
 Reference value :  3.52503e-05
 Reference value :  3.52506e-05
 Reference value :  3.52514e-05
 Reference value :  3.52518e-05
 Reference value :  3.52528e-05
 Reference value :  3.52535e-05
 Reference value :  3.52540e-05
 Reference value :  3.52552e-05
 Reference value :  3.52558e-05
 Reference value :  3.52580e-05
 Reference value :  3.52664e-05
 Reference value :  3.52887e-05
 Reference value :  3.53684e-05
 Reference value :  3.55000e-05
 Reference value :  3.55000e-05
 Reference value :  3.55001e-05
 Reference value :  3.55001e-05
 Reference value :  3.55002e-05
 Reference value :  3.55005e-05
 Reference value :  3.55012e-05
 Reference value :  3.55016e-05
 Reference value :  3.55026e-05
 Reference value :  3.55031e-05
 Reference value :  3.55042e-05
 Reference value :  3.55049e-05
[...]
 Reference value :  5.35251e-04
 Reference value :  5.35251e-04
 Reference value :  5.35252e-04
 Reference value :  5.35254e-04
 Reference value :  5.35255e-04
 Reference value :  5.35257e-04
 Reference value :  5.35264e-04
 Reference value :  5.35289e-04
 Reference value :  5.35413e-04
 Reference value :  5.35500e-04
 Reference value :  5.35500e-04
 Reference value :  5.35500e-04
 Reference value :  5.35500e-04
 Reference value :  5.35501e-04
 Reference value :  5.35501e-04
 Reference value :  5.35502e-04
 Reference value :  5.35504e-04
 Reference value :  5.35505e-04
 Reference value :  5.35506e-04
 Reference value :  5.35510e-04
 Reference value :  5.35519e-04
 Reference value :  5.35524e-04
 Reference value :  5.35528e-04
 Reference value :  5.35530e-04
 Reference value :  5.35532e-04
 Reference value :  5.35535e-04
 Reference value :  5.35538e-04
 Reference value :  5.35541e-04
 Reference value :  5.35545e-04
 Reference value :  5.35549e-04
 Reference value :  5.35558e-04
 Reference value :  5.35567e-04
 Reference value :  5.35572e-04
 Reference value :  5.35601e-04
 Reference value :  5.35638e-04
 Reference value :  5.35699e-04
 Reference value :  5.35714e-04
 Reference value :  5.35724e-04
 Reference value :  5.35734e-04
 Reference value :  5.35750e-04
 Reference value :  5.35750e-04
 Reference value :  5.35750e-04
 Reference value :  5.35750e-04
 Reference value :  5.35751e-04
 Reference value :  5.35751e-04
 Reference value :  5.35752e-04
 Reference value :  5.35753e-04
 Reference value :  5.35754e-04
 Reference value :  5.35755e-04
 Reference value :  5.35756e-04
 Reference value :  5.35758e-04
 Reference value :  5.35766e-04
 Reference value :  5.35814e-04
 Reference value :  5.36000e-04
 Reference value :  5.36000e-04
 Reference value :  5.36002e-04
 Reference value :  5.36003e-04
 Reference value :  5.36004e-04
 Reference value :  5.36006e-04
 Reference value :  5.36008e-04
 Reference value :  5.36009e-04
 Reference value :  5.36012e-04
 Reference value :  5.36015e-04
 Reference value :  5.36023e-04
 Reference value :  5.36054e-04
 Reference value :  5.36125e-04
 Reference value :  5.36250e-04
 Reference value :  5.36250e-04
 Reference value :  5.36250e-04
 Reference value :  5.36250e-04
 Reference value :  5.36251e-04
 Reference value :  5.36252e-04
 Reference value :  5.36253e-04
 Reference value :  5.36254e-04
 Reference value :  5.36255e-04
 Reference value :  5.36257e-04
 Reference value :  5.36258e-04
 Reference value :  5.36261e-04
 Reference value :  5.36271e-04
 Reference value :  5.36304e-04
 Reference value :  5.36448e-04
 Reference value :  5.36500e-04
 Reference value :  5.36500e-04
 Reference value :  5.36500e-04
 Reference value :  5.36501e-04
 Reference value :  5.36501e-04
 Reference value :  5.36502e-04
 Reference value :  5.36503e-04
 Reference value :  5.36503e-04
 Reference value :  5.36504e-04
 Reference value :  5.36504e-04
 Reference value :  5.36505e-04
 Reference value :  5.36505e-04
 Reference value :  5.36506e-04
 Reference value :  5.36506e-04
 Reference value :  5.36507e-04
 Reference value :  5.36508e-04
 Reference value :  5.36509e-04
 Reference value :  5.36510e-04
 Reference value :  5.36512e-04
 Reference value :  5.36514e-04
 Reference value :  5.36516e-04
 Reference value :  5.36517e-04
 Reference value :  5.36519e-04
 Reference value :  5.36522e-04
 Reference value :  5.36536e-04
 Reference value :  5.36608e-04
 Reference value :  5.36750e-04
 Reference value :  5.36750e-04
 Reference value :  5.36750e-04
 Reference value :  5.36750e-04
 Reference value :  5.36750e-04
 Reference value :  5.36751e-04
 Reference value :  5.36751e-04
 Reference value :  5.36752e-04
 Reference value :  5.36752e-04
 Reference value :  5.36753e-04
 Reference value :  5.36754e-04
 Reference value :  5.36754e-04
 Reference value :  5.36755e-04
 Reference value :  5.36756e-04
 Reference value :  5.36760e-04
 Reference value :  5.36774e-04
 Reference value :  5.36868e-04
 Reference value :  5.37000e-04
 Reference value :  5.37000e-04
 Reference value :  5.37000e-04
 Reference value :  5.37000e-04
 Reference value :  5.37001e-04
 Reference value :  5.37002e-04
 Reference value :  5.37003e-04
 Reference value :  5.37003e-04
 Reference value :  5.37004e-04
 Reference value :  5.37005e-04
 Reference value :  5.37006e-04
 Reference value :  5.37008e-04
 Reference value :  5.37010e-04
 Reference value :  5.37011e-04
 Reference value :  5.37015e-04
 Reference value :  5.37019e-04
 Reference value :  5.37026e-04
 Reference value :  5.37039e-04
 Reference value :  5.37061e-04
 Reference value :  5.37106e-04
 Reference value :  5.37196e-04
 Reference value :  5.37250e-04
 Reference value :  5.37250e-04
 Reference value :  5.37250e-04
 Reference value :  5.37251e-04
 Reference value :  5.37251e-04
 Reference value :  5.37252e-04
 Reference value :  5.37253e-04
 Reference value :  5.37254e-04
 Reference value :  5.37255e-04
 Reference value :  5.37256e-04
 Reference value :  5.37258e-04
 Reference value :  5.37260e-04
 Reference value :  5.37267e-04
 Reference value :  5.37294e-04
 Reference value :  5.37407e-04
 Reference value :  5.37500e-04
 Reference value :  5.37500e-04
 Reference value :  5.37500e-04
 Reference value :  5.37500e-04
 Reference value :  5.37501e-04
 Reference value :  5.37502e-04
 Reference value :  5.37503e-04
 Reference value :  5.37503e-04
 Reference value :  5.37504e-04
 Reference value :  5.37505e-04
 Reference value :  5.37507e-04
 Reference value :  5.37509e-04
 Reference value :  5.37509e-04
 Reference value :  5.37511e-04
 Reference value :  5.37513e-04
 Reference value :  5.37514e-04
 Reference value :  5.37514e-04
 Reference value :  5.37515e-04
 Reference value :  5.37516e-04
 Reference value :  5.37517e-04
 Reference value :  5.37519e-04
 Reference value :  5.37527e-04
 Reference value :  5.37545e-04
 Reference value :  5.37595e-04
 Reference value :  5.37632e-04
 Reference value :  5.37697e-04
 Reference value :  5.37717e-04
 Reference value :  5.37737e-04
 Reference value :  5.37750e-04
 Reference value :  5.37750e-04
 Reference value :  5.37750e-04
 Reference value :  5.37750e-04
 Reference value :  5.37751e-04
 Reference value :  5.37751e-04
 Reference value :  5.37752e-04
 Reference value :  5.37753e-04
 Reference value :  5.37754e-04
 Reference value :  5.37755e-04
 Reference value :  5.37757e-04
 Reference value :  5.37760e-04
 Reference value :  5.37774e-04
 Reference value :  5.37869e-04
 Reference value :  5.38000e-04
 Reference value :  5.38000e-04
 Reference value :  5.38000e-04
 Reference value :  5.38000e-04
 Reference value :  5.38001e-04
 Reference value :  5.38002e-04
 Reference value :  5.38003e-04
 Reference value :  5.38003e-04
 Reference value :  5.38004e-04
 Reference value :  5.38006e-04
 Reference value :  5.38006e-04
 Reference value :  5.38008e-04
 Reference value :  5.38010e-04
 Reference value :  5.38012e-04
 Reference value :  5.38018e-04
 Reference value :  5.38050e-04
 Reference value :  5.38250e-04
 Reference value :  5.38250e-04
 Reference value :  5.38250e-04
 Reference value :  5.38250e-04
 Reference value :  5.38251e-04
 Reference value :  5.38251e-04
 Reference value :  5.38252e-04
 Reference value :  5.38253e-04
 Reference value :  5.38254e-04
 Reference value :  5.38255e-04
 Reference value :  5.38257e-04
 Reference value :  5.38263e-04
 Reference value :  5.38289e-04
 Reference value :  5.38484e-04
 Reference value :  5.38500e-04
 Reference value :  5.38501e-04
 Reference value :  5.38502e-04
 Reference value :  5.38502e-04
 Reference value :  5.38503e-04
 Reference value :  5.38503e-04
 Reference value :  5.38504e-04
 Reference value :  5.38504e-04
 Reference value :  5.38505e-04
 Reference value :  5.38505e-04
 Reference value :  5.38507e-04
 Reference value :  5.38510e-04
 Reference value :  5.38511e-04
 Reference value :  5.38513e-04
 Reference value :  5.38514e-04
 Reference value :  5.38516e-04
 Reference value :  5.38518e-04
 Reference value :  5.38521e-04
 Reference value :  5.38531e-04
 Reference value :  5.38547e-04
 Reference value :  5.38561e-04
 Reference value :  5.38566e-04
 Reference value :  5.38577e-04
 Reference value :  5.38590e-04
 Reference value :  5.38614e-04
 Reference value :  5.38690e-04
 Reference value :  5.38750e-04
 Reference value :  5.38750e-04
 Reference value :  5.38750e-04
 Reference value :  5.38750e-04
 Reference value :  5.38751e-04
 Reference value :  5.38752e-04
 Reference value :  5.38753e-04
 Reference value :  5.38754e-04
 Reference value :  5.38755e-04
 Reference value :  5.38756e-04
 Reference value :  5.38760e-04
 Reference value :  5.38773e-04
 Reference value :  5.38869e-04
 Reference value :  5.39000e-04
 Reference value :  5.39000e-04
 Reference value :  5.39000e-04
 Reference value :  5.39000e-04
 Reference value :  5.39001e-04
 Reference value :  5.39001e-04
 Reference value :  5.39002e-04
 Reference value :  5.39003e-04
 Reference value :  5.39003e-04
 Reference value :  5.39004e-04
 Reference value :  5.39006e-04
 Reference value :  5.39006e-04
 Reference value :  5.39008e-04
 Reference value :  5.39010e-04
 Reference value :  5.39011e-04
 Reference value :  5.39015e-04
 Reference value :  5.39039e-04
 Reference value :  5.39202e-04
 Reference value :  5.39250e-04
 Reference value :  5.39250e-04
 Reference value :  5.39250e-04
 Reference value :  5.39250e-04
 Reference value :  5.39251e-04
 Reference value :  5.39251e-04
 Reference value :  5.39252e-04
 Reference value :  5.39253e-04
 Reference value :  5.39253e-04
 Reference value :  5.39254e-04
 Reference value :  5.39255e-04
 Reference value :  5.39257e-04
 Reference value :  5.39259e-04
 Reference value :  5.39262e-04
 Reference value :  5.39272e-04
 Reference value :  5.39315e-04
 Reference value :  5.39404e-04
 Reference value :  5.39500e-04
 Reference value :  5.39500e-04
 Reference value :  5.39500e-04
 Reference value :  5.39500e-04
 Reference value :  5.39500e-04
 Reference value :  5.39501e-04
 Reference value :  5.39502e-04
 Reference value :  5.39503e-04
 Reference value :  5.39503e-04
 Reference value :  5.39504e-04
 Reference value :  5.39505e-04
 Reference value :  5.39506e-04
 Reference value :  5.39508e-04
 Reference value :  5.39510e-04
 Reference value :  5.39512e-04
 Reference value :  5.39515e-04
 Reference value :  5.39517e-04
 Reference value :  5.39519e-04
 Reference value :  5.39523e-04
 Reference value :  5.39537e-04
 Reference value :  5.39546e-04
 Reference value :  5.39555e-04
 Reference value :  5.39564e-04
 Reference value :  5.39569e-04
 Reference value :  5.39577e-04
 Reference value :  5.39603e-04
 Reference value :  5.39630e-04
 Reference value :  5.39704e-04
 Reference value :  5.39750e-04
 Reference value :  5.39750e-04
 Reference value :  5.39750e-04
 Reference value :  5.39750e-04
 Reference value :  5.39751e-04
 Reference value :  5.39752e-04
 Reference value :  5.39752e-04
 Reference value :  5.39754e-04
 Reference value :  5.39754e-04
 Reference value :  5.39755e-04
 Reference value :  5.39757e-04
 Reference value :  5.39761e-04
 Reference value :  5.39777e-04
 Reference value :  5.39882e-04
 Reference value :  5.40000e-04
 Reference value :  5.40000e-04
 Reference value :  5.40000e-04
 Reference value :  5.40000e-04
 Reference value :  5.40001e-04
 Reference value :  5.40002e-04
 Reference value :  5.40003e-04
 Reference value :  5.40003e-04
 Reference value :  5.40005e-04
 Reference value :  5.40006e-04
 Reference value :  5.40008e-04
 Reference value :  5.40010e-04
 Reference value :  5.40012e-04
 Reference value :  5.40019e-04
 Reference value :  5.40051e-04
 Reference value :  5.40250e-04
 Reference value :  5.40250e-04
 Reference value :  5.40250e-04
 Reference value :  5.40250e-04
 Reference value :  5.40250e-04
 Reference value :  5.40251e-04
 Reference value :  5.40252e-04
 Reference value :  5.40252e-04
 Reference value :  5.40254e-04
 Reference value :  5.40254e-04
 Reference value :  5.40255e-04
 Reference value :  5.40257e-04
 Reference value :  5.40264e-04
 Reference value :  5.40294e-04
 Reference value :  5.40481e-04
 Reference value :  5.40500e-04
 Reference value :  5.40500e-04
 Reference value :  5.40500e-04
 Reference value :  5.40500e-04
 Reference value :  5.40501e-04
 Reference value :  5.40502e-04
 Reference value :  5.40503e-04
 Reference value :  5.40503e-04
 Reference value :  5.40505e-04
 Reference value :  5.40505e-04
 Reference value :  5.40507e-04
 Reference value :  5.40509e-04
 Reference value :  5.40512e-04
 Reference value :  5.40514e-04
 Reference value :  5.40515e-04
 Reference value :  5.40518e-04
 Reference value :  5.40520e-04
 Reference value :  5.40524e-04
 Reference value :  5.40534e-04
 Reference value :  5.40541e-04
 Reference value :  5.40560e-04
 Reference value :  5.40567e-04
 Reference value :  5.40581e-04
 Reference value :  5.40596e-04
 Reference value :  5.40627e-04
 Reference value :  5.40677e-04
 Reference value :  5.40750e-04
 Reference value :  5.40750e-04
 Reference value :  5.40750e-04
 Reference value :  5.40750e-04
 Reference value :  5.40751e-04
 Reference value :  5.40752e-04
 Reference value :  5.40752e-04
 Reference value :  5.40754e-04
 Reference value :  5.40754e-04
 Reference value :  5.40755e-04
 Reference value :  5.40756e-04
 Reference value :  5.40759e-04
 Reference value :  5.40769e-04
 Reference value :  5.40830e-04
 Reference value :  5.41000e-04
 Reference value :  5.41000e-04
 Reference value :  5.41000e-04
 Reference value :  5.41000e-04
 Reference value :  5.41000e-04
 Reference value :  5.41001e-04
 Reference value :  5.41002e-04
 Reference value :  5.41003e-04
 Reference value :  5.41003e-04
 Reference value :  5.41005e-04
 Reference value :  5.41006e-04
 Reference value :  5.41008e-04
 Reference value :  5.41010e-04
 Reference value :  5.41012e-04
 Reference value :  5.41020e-04
 Reference value :  5.41057e-04
 Reference value :  5.41250e-04
 Reference value :  5.41250e-04
 Reference value :  5.41250e-04
 Reference value :  5.41250e-04
 Reference value :  5.41250e-04
 Reference value :  5.41251e-04
 Reference value :  5.41252e-04
 Reference value :  5.41252e-04
 Reference value :  5.41254e-04
 Reference value :  5.41254e-04
 Reference value :  5.41255e-04
 Reference value :  5.41256e-04
 Reference value :  5.41258e-04
 Reference value :  5.41260e-04
 Reference value :  5.41263e-04
 Reference value :  5.41278e-04
 Reference value :  5.41329e-04
 Reference value :  5.41427e-04
 Reference value :  5.41501e-04
 Reference value :  5.41503e-04
 Reference value :  5.41505e-04
 Reference value :  5.41506e-04
 Reference value :  5.41507e-04
 Reference value :  5.41509e-04
 Reference value :  5.41511e-04
 Reference value :  5.41512e-04
 Reference value :  5.41514e-04
 Reference value :  5.41516e-04
 Reference value :  5.41518e-04
 Reference value :  5.41521e-04
 Reference value :  5.41526e-04
 Reference value :  5.41536e-04
 Reference value :  5.41546e-04
 Reference value :  5.41550e-04
 Reference value :  5.41558e-04
 Reference value :  5.41570e-04
 Reference value :  5.41590e-04
 Reference value :  5.41649e-04
 Reference value :  5.41750e-04
 Reference value :  5.41750e-04
 Reference value :  5.41750e-04
 Reference value :  5.41750e-04
 Reference value :  5.41751e-04
 Reference value :  5.41752e-04
 Reference value :  5.41753e-04
 Reference value :  5.41754e-04
 Reference value :  5.41755e-04
 Reference value :  5.41757e-04
 Reference value :  5.41762e-04
 Reference value :  5.41790e-04
 Reference value :  5.42000e-04
 Reference value :  5.42000e-04
 Reference value :  5.42000e-04
 Reference value :  5.42000e-04
 Reference value :  5.42000e-04
 Reference value :  5.42001e-04
 Reference value :  5.42002e-04
 Reference value :  5.42003e-04
 Reference value :  5.42003e-04
 Reference value :  5.42005e-04
 Reference value :  5.42005e-04
 Reference value :  5.42006e-04
 Reference value :  5.42008e-04
 Reference value :  5.42010e-04
 Reference value :  5.42012e-04
 Reference value :  5.42019e-04
 Reference value :  5.42054e-04
 Reference value :  5.42250e-04
 Reference value :  5.42250e-04
 Reference value :  5.42250e-04
 Reference value :  5.42250e-04
 Reference value :  5.42250e-04
 Reference value :  5.42251e-04
 Reference value :  5.42252e-04
 Reference value :  5.42252e-04
 Reference value :  5.42254e-04
 Reference value :  5.42254e-04
 Reference value :  5.42255e-04
 Reference value :  5.42256e-04
 Reference value :  5.42258e-04
 Reference value :  5.42268e-04
 Reference value :  5.42323e-04
 Reference value :  5.42500e-04
 Reference value :  5.42500e-04
 Reference value :  5.42501e-04
 Reference value :  5.42502e-04
 Reference value :  5.42503e-04
 Reference value :  5.42503e-04
 Reference value :  5.42504e-04
 Reference value :  5.42506e-04
 Reference value :  5.42507e-04
 Reference value :  5.42510e-04
 Reference value :  5.42512e-04
 Reference value :  5.42515e-04
 Reference value :  5.42517e-04
 Reference value :  5.42519e-04
 Reference value :  5.42522e-04
 Reference value :  5.42537e-04
 Reference value :  5.42571e-04
 Reference value :  5.42630e-04
 Reference value :  5.42691e-04
 Reference value :  5.42746e-04
 Reference value :  5.42750e-04
 Reference value :  5.42750e-04
 Reference value :  5.42750e-04
 Reference value :  5.42751e-04
 Reference value :  5.42751e-04
 Reference value :  5.42752e-04
 Reference value :  5.42753e-04
 Reference value :  5.42754e-04
 Reference value :  5.42755e-04
 Reference value :  5.42756e-04
 Reference value :  5.42759e-04
 Reference value :  5.42769e-04
 Reference value :  5.42797e-04
 Reference value :  5.42896e-04
 Reference value :  5.43000e-04
 Reference value :  5.43000e-04
 Reference value :  5.43000e-04
 Reference value :  5.43000e-04
 Reference value :  5.43000e-04
 Reference value :  5.43001e-04
 Reference value :  5.43002e-04
 Reference value :  5.43003e-04
 Reference value :  5.43003e-04
 Reference value :  5.43005e-04
 Reference value :  5.43006e-04
 Reference value :  5.43008e-04
 Reference value :  5.43010e-04
 Reference value :  5.43012e-04
 Reference value :  5.43020e-04
 Reference value :  5.43037e-04
 Reference value :  5.43174e-04
 Reference value :  5.43250e-04
 Reference value :  5.43250e-04
 Reference value :  5.43250e-04
 Reference value :  5.43250e-04
 Reference value :  5.43251e-04
 Reference value :  5.43252e-04
 Reference value :  5.43252e-04
 Reference value :  5.43254e-04
 Reference value :  5.43254e-04
 Reference value :  5.43255e-04
 Reference value :  5.43256e-04
 Reference value :  5.43258e-04
 Reference value :  5.43260e-04
 Reference value :  5.43264e-04
 Reference value :  5.43280e-04
 Reference value :  5.43341e-04
 Reference value :  5.43500e-04
 Reference value :  5.43500e-04
 Reference value :  5.43500e-04
 Reference value :  5.43500e-04
 Reference value :  5.43501e-04
 Reference value :  5.43501e-04
 Reference value :  5.43502e-04
 Reference value :  5.43503e-04
 Reference value :  5.43503e-04
 Reference value :  5.43505e-04
 Reference value :  5.43506e-04
 Reference value :  5.43507e-04
 Reference value :  5.43509e-04
 Reference value :  5.43510e-04
 Reference value :  5.43512e-04
 Reference value :  5.43515e-04
 Reference value :  5.43517e-04
 Reference value :  5.43520e-04
 Reference value :  5.43530e-04
 Reference value :  5.43550e-04
 Reference value :  5.43560e-04
 Reference value :  5.43566e-04
 Reference value :  5.43582e-04
 Reference value :  5.43608e-04
 Reference value :  5.43640e-04
 Reference value :  5.43743e-04
 Reference value :  5.43750e-04
 Reference value :  5.43750e-04
 Reference value :  5.43750e-04
 Reference value :  5.43750e-04
 Reference value :  5.43751e-04
 Reference value :  5.43751e-04
 Reference value :  5.43752e-04
 Reference value :  5.43753e-04
 Reference value :  5.43754e-04
 Reference value :  5.43756e-04
 Reference value :  5.43758e-04
 Reference value :  5.43763e-04
 Reference value :  5.43790e-04
 Reference value :  5.44000e-04
No. of Data Rows : 80359
ngspice-44 done
