
Note: Compatibility modes selected: hs a


Circuit: ** sch_path: /home/samantha/cace/sar-adc-using-sky130-pdk/runs/run_2025-09-05_10-55-47/parameters/power/run_03/power_consumption.sch

option SCALE: Scale is set to 1e-06 for instance and model parameters
option SCALE: Scale is set to 1e-06 for instance and model parameters
option SCALE: Scale is set to 1e-06 for instance and model parameters
option SCALE: Scale is set to 1e-06 for instance and model parameters
Doing analysis at TEMP = 27.000000 and TNOM = 27.000000

Using KLU as Direct Linear Solver
 Reference value :  0.00000e+00
 Reference value :  2.00000e-12
 Reference value :  8.00000e-12
 Reference value :  3.20000e-11
 Reference value :  1.00000e-10
 Reference value :  1.19200e-10
 Reference value :  1.96000e-10
 Reference value :  2.98400e-10
 Reference value :  7.56794e-10
 Reference value :  1.04164e-09
 Reference value :  1.50285e-09
 Reference value :  1.91785e-09
 Reference value :  2.38885e-09
 Reference value :  2.84752e-09
 Reference value :  3.24805e-09
 Reference value :  3.71857e-09
 Reference value :  4.21174e-09
 Reference value :  4.70520e-09
 Reference value :  5.25266e-09
 Reference value :  5.84526e-09
 Reference value :  6.64973e-09
 Reference value :  7.41442e-09
 Reference value :  8.29535e-09
 Reference value :  1.01508e-08
 Reference value :  1.12070e-08
 Reference value :  1.23546e-08
 Reference value :  1.32565e-08
 Reference value :  1.41511e-08
 Reference value :  1.50059e-08
 Reference value :  1.76227e-08
 Reference value :  2.26118e-08
 Reference value :  2.80411e-08
 Reference value :  2.98108e-08
 Reference value :  3.14633e-08
 Reference value :  3.26733e-08
 Reference value :  3.65819e-08
 Reference value :  4.39143e-08
 Reference value :  5.04401e-08
 Reference value :  7.51077e-08
 Reference value :  1.20092e-07
 Reference value :  1.46516e-07
 Reference value :  1.63804e-07
 Reference value :  1.79596e-07
 Reference value :  1.94952e-07
 Reference value :  2.37657e-07
 Reference value :  2.50110e-07
 Reference value :  2.50170e-07
 Reference value :  2.50200e-07
 Reference value :  2.50220e-07
 Reference value :  2.50247e-07
 Reference value :  2.50300e-07
 Reference value :  2.50523e-07
 Reference value :  2.50733e-07
 Reference value :  2.50962e-07
 Reference value :  2.51420e-07
 Reference value :  2.51929e-07
 Reference value :  2.52398e-07
 Reference value :  2.53075e-07
 Reference value :  2.53884e-07
 Reference value :  2.54450e-07
 Reference value :  2.55106e-07
 Reference value :  2.55804e-07
 Reference value :  2.56701e-07
 Reference value :  2.57574e-07
 Reference value :  2.59007e-07
 Reference value :  2.63335e-07
 Reference value :  2.73486e-07
 Reference value :  3.03830e-07
 Reference value :  3.98009e-07
 Reference value :  5.00000e-07
 Reference value :  5.00010e-07
 Reference value :  5.00070e-07
 Reference value :  5.00108e-07
 Reference value :  5.00156e-07
 Reference value :  5.00220e-07
 Reference value :  5.00520e-07
 Reference value :  5.01301e-07
 Reference value :  5.01765e-07
 Reference value :  5.02215e-07
 Reference value :  5.02712e-07
 Reference value :  5.03327e-07
 Reference value :  5.04080e-07
 Reference value :  5.04881e-07
 Reference value :  5.05690e-07
 Reference value :  5.08162e-07
 Reference value :  5.09660e-07
 Reference value :  5.10962e-07
 Reference value :  5.12323e-07
 Reference value :  5.14062e-07
 Reference value :  5.15913e-07
 Reference value :  5.17996e-07
 Reference value :  5.20388e-07
 Reference value :  5.27388e-07
 Reference value :  5.42073e-07
 Reference value :  5.85580e-07
 Reference value :  6.35115e-07
 Reference value :  7.50100e-07
 Reference value :  7.50110e-07
 Reference value :  7.50170e-07
 Reference value :  7.50200e-07
 Reference value :  7.50223e-07
 Reference value :  7.50254e-07
 Reference value :  7.50317e-07
 Reference value :  7.50614e-07
 Reference value :  7.50849e-07
 Reference value :  7.51750e-07
 Reference value :  7.52256e-07
 Reference value :  7.52826e-07
 Reference value :  7.53589e-07
 Reference value :  7.54155e-07
 Reference value :  7.54810e-07
 Reference value :  7.55395e-07
 Reference value :  7.56045e-07
 Reference value :  7.56903e-07
 Reference value :  7.57796e-07
 Reference value :  7.58718e-07
 Reference value :  7.59907e-07
 Reference value :  7.61144e-07
 Reference value :  7.65291e-07
 Reference value :  7.74679e-07
 Reference value :  7.97512e-07
 Reference value :  8.55628e-07
 Reference value :  1.00000e-06
 Reference value :  1.00003e-06
 Reference value :  1.00010e-06
 Reference value :  1.00012e-06
 Reference value :  1.00022e-06
 Reference value :  1.00035e-06
 Reference value :  1.00052e-06
 Reference value :  1.00086e-06
 Reference value :  1.00130e-06
 Reference value :  1.00224e-06
 Reference value :  1.00340e-06
 Reference value :  1.00403e-06
 Reference value :  1.00457e-06
 Reference value :  1.00521e-06
 Reference value :  1.00581e-06
 Reference value :  1.00649e-06
 Reference value :  1.00806e-06
 Reference value :  1.00908e-06
 Reference value :  1.01047e-06
 Reference value :  1.01146e-06
 Reference value :  1.01254e-06
 Reference value :  1.01356e-06
 Reference value :  1.01468e-06
 Reference value :  1.01543e-06
 Reference value :  1.01626e-06
 Reference value :  1.01736e-06
 Reference value :  1.01849e-06
 Reference value :  1.01954e-06
 Reference value :  1.02083e-06
 Reference value :  1.02219e-06
 Reference value :  1.02676e-06
 Reference value :  1.03191e-06
 Reference value :  1.05416e-06
 Reference value :  1.12049e-06
 Reference value :  1.19352e-06
 Reference value :  1.25011e-06
 Reference value :  1.25013e-06
 Reference value :  1.25020e-06
 Reference value :  1.25021e-06
 Reference value :  1.25022e-06
 Reference value :  1.25025e-06
 Reference value :  1.25032e-06
 Reference value :  1.25044e-06
 Reference value :  1.25061e-06
 Reference value :  1.25085e-06
 Reference value :  1.25126e-06
 Reference value :  1.25175e-06
 Reference value :  1.25226e-06
 Reference value :  1.25283e-06
 Reference value :  1.25363e-06
 Reference value :  1.25420e-06
 Reference value :  1.25484e-06
 Reference value :  1.25546e-06
 Reference value :  1.25613e-06
 Reference value :  1.25708e-06
 Reference value :  1.25836e-06
 Reference value :  1.26001e-06
 Reference value :  1.26268e-06
 Reference value :  1.26617e-06
 Reference value :  1.27314e-06
 Reference value :  1.28707e-06
 Reference value :  1.31494e-06
 Reference value :  1.37068e-06
 Reference value :  1.45382e-06
 Reference value :  1.50000e-06
 Reference value :  1.50001e-06
 Reference value :  1.50007e-06
 Reference value :  1.50011e-06
 Reference value :  1.50012e-06
 Reference value :  1.50022e-06
 Reference value :  1.50052e-06
 Reference value :  1.50130e-06
 Reference value :  1.50176e-06
 Reference value :  1.50221e-06
 Reference value :  1.50331e-06
 Reference value :  1.50404e-06
 Reference value :  1.50485e-06
 Reference value :  1.50559e-06
 Reference value :  1.50674e-06
 Reference value :  1.50756e-06
 Reference value :  1.50950e-06
 Reference value :  1.51062e-06
 Reference value :  1.51178e-06
 Reference value :  1.51551e-06
 Reference value :  1.52586e-06
 Reference value :  1.56184e-06
 Reference value :  1.70408e-06
 Reference value :  1.75010e-06
 Reference value :  1.75013e-06
 Reference value :  1.75017e-06
 Reference value :  1.75020e-06
 Reference value :  1.75022e-06
 Reference value :  1.75026e-06
 Reference value :  1.75032e-06
 Reference value :  1.75062e-06
 Reference value :  1.75086e-06
 Reference value :  1.75127e-06
 Reference value :  1.75176e-06
 Reference value :  1.75226e-06
 Reference value :  1.75284e-06
 Reference value :  1.75361e-06
 Reference value :  1.75417e-06
 Reference value :  1.75482e-06
 Reference value :  1.75540e-06
 Reference value :  1.75604e-06
 Reference value :  1.75688e-06
 Reference value :  1.75778e-06
 Reference value :  1.75869e-06
 Reference value :  1.75991e-06
 Reference value :  1.76111e-06
 Reference value :  1.76290e-06
 Reference value :  1.76524e-06
 Reference value :  1.76852e-06
 Reference value :  1.77449e-06
 Reference value :  1.78275e-06
 Reference value :  1.79677e-06
 Reference value :  1.85283e-06
 Reference value :  1.91058e-06
 Reference value :  2.00000e-06
 Reference value :  2.00001e-06
 Reference value :  2.00007e-06
 Reference value :  2.00010e-06
 Reference value :  2.00011e-06
 Reference value :  2.00012e-06
 Reference value :  2.00022e-06
 Reference value :  2.00035e-06
 Reference value :  2.00052e-06
 Reference value :  2.00086e-06
 Reference value :  2.00130e-06
 Reference value :  2.00176e-06
 Reference value :  2.00223e-06
 Reference value :  2.00340e-06
 Reference value :  2.00403e-06
 Reference value :  2.00457e-06
 Reference value :  2.00520e-06
 Reference value :  2.00581e-06
 Reference value :  2.00649e-06
 Reference value :  2.00718e-06
 Reference value :  2.00806e-06
 Reference value :  2.01047e-06
 Reference value :  2.01147e-06
 Reference value :  2.01255e-06
 Reference value :  2.01356e-06
 Reference value :  2.01468e-06
 Reference value :  2.01543e-06
 Reference value :  2.01626e-06
 Reference value :  2.01737e-06
 Reference value :  2.01851e-06
 Reference value :  2.01956e-06
 Reference value :  2.02086e-06
 Reference value :  2.02423e-06
 Reference value :  2.03205e-06
 Reference value :  2.05433e-06
 Reference value :  2.07913e-06
 Reference value :  2.13296e-06
 Reference value :  2.15042e-06
 Reference value :  2.16788e-06
 Reference value :  2.18141e-06
 Reference value :  2.19630e-06
 Reference value :  2.21516e-06
 Reference value :  2.25010e-06
 Reference value :  2.25011e-06
 Reference value :  2.25013e-06
 Reference value :  2.25017e-06
 Reference value :  2.25021e-06
 Reference value :  2.25022e-06
 Reference value :  2.25032e-06
 Reference value :  2.25061e-06
 Reference value :  2.25126e-06
 Reference value :  2.25175e-06
 Reference value :  2.25226e-06
 Reference value :  2.25283e-06
 Reference value :  2.25363e-06
 Reference value :  2.25421e-06
 Reference value :  2.25488e-06
 Reference value :  2.25550e-06
 Reference value :  2.25720e-06
 Reference value :  2.26015e-06
 Reference value :  2.26276e-06
 Reference value :  2.27409e-06
 Reference value :  2.31938e-06
 Reference value :  2.47151e-06
 Reference value :  2.50000e-06
 Reference value :  2.50001e-06
 Reference value :  2.50003e-06
 Reference value :  2.50007e-06
 Reference value :  2.50011e-06
 Reference value :  2.50012e-06
 Reference value :  2.50022e-06
 Reference value :  2.50035e-06
 Reference value :  2.50052e-06
 Reference value :  2.50086e-06
 Reference value :  2.50130e-06
 Reference value :  2.50176e-06
 Reference value :  2.50223e-06
 Reference value :  2.50339e-06
 Reference value :  2.50398e-06
 Reference value :  2.50462e-06
 Reference value :  2.50531e-06
 Reference value :  2.50628e-06
 Reference value :  2.50745e-06
 Reference value :  2.50856e-06
 Reference value :  2.50962e-06
 Reference value :  2.51092e-06
 Reference value :  2.51229e-06
 Reference value :  2.51650e-06
 Reference value :  2.52831e-06
 Reference value :  2.54186e-06
 Reference value :  2.56367e-06
 Reference value :  2.60258e-06
 Reference value :  2.67584e-06
 Reference value :  2.75011e-06
 Reference value :  2.75017e-06
 Reference value :  2.75020e-06
 Reference value :  2.75022e-06
 Reference value :  2.75026e-06
 Reference value :  2.75045e-06
 Reference value :  2.75086e-06
 Reference value :  2.75127e-06
 Reference value :  2.75176e-06
 Reference value :  2.75226e-06
 Reference value :  2.75284e-06
 Reference value :  2.75363e-06
 Reference value :  2.75420e-06
 Reference value :  2.75544e-06
 Reference value :  2.75608e-06
 Reference value :  2.75692e-06
 Reference value :  2.75962e-06
 Reference value :  2.76527e-06
 Reference value :  2.78330e-06
 Reference value :  2.80734e-06
 Reference value :  2.95156e-06
 Reference value :  3.00000e-06
 Reference value :  3.00003e-06
 Reference value :  3.00007e-06
 Reference value :  3.00011e-06
 Reference value :  3.00012e-06
 Reference value :  3.00022e-06
 Reference value :  3.00052e-06
 Reference value :  3.00130e-06
 Reference value :  3.00223e-06
 Reference value :  3.00276e-06
 Reference value :  3.00340e-06
 Reference value :  3.00403e-06
 Reference value :  3.00457e-06
 Reference value :  3.00520e-06
 Reference value :  3.00580e-06
 Reference value :  3.00647e-06
 Reference value :  3.00715e-06
 Reference value :  3.00804e-06
 Reference value :  3.01087e-06
 Reference value :  3.01269e-06
 Reference value :  3.01416e-06
 Reference value :  3.01541e-06
 Reference value :  3.01661e-06
 Reference value :  3.01896e-06
 Reference value :  3.02014e-06
 Reference value :  3.02144e-06
 Reference value :  3.02308e-06
 Reference value :  3.02806e-06
 Reference value :  3.03376e-06
 Reference value :  3.04259e-06
 Reference value :  3.05262e-06
 Reference value :  3.07103e-06
 Reference value :  3.07771e-06
 Reference value :  3.08398e-06
 Reference value :  3.09017e-06
 Reference value :  3.10339e-06
 Reference value :  3.12379e-06
 Reference value :  3.16099e-06
 Reference value :  3.19629e-06
 Reference value :  3.25010e-06
 Reference value :  3.25011e-06
 Reference value :  3.25013e-06
 Reference value :  3.25020e-06
 Reference value :  3.25021e-06
 Reference value :  3.25032e-06
 Reference value :  3.25061e-06
 Reference value :  3.25126e-06
 Reference value :  3.25175e-06
 Reference value :  3.25226e-06
 Reference value :  3.25283e-06
 Reference value :  3.25363e-06
 Reference value :  3.25418e-06
 Reference value :  3.25545e-06
 Reference value :  3.25612e-06
 Reference value :  3.25706e-06
 Reference value :  3.25838e-06
 Reference value :  3.26000e-06
 Reference value :  3.26271e-06
 Reference value :  3.26615e-06
 Reference value :  3.27303e-06
 Reference value :  3.28679e-06
 Reference value :  3.36934e-06
 Reference value :  3.47941e-06
 Reference value :  3.50000e-06
 Reference value :  3.50001e-06
 Reference value :  3.50007e-06
 Reference value :  3.50011e-06
 Reference value :  3.50012e-06
 Reference value :  3.50022e-06
 Reference value :  3.50052e-06
 Reference value :  3.50086e-06
 Reference value :  3.50130e-06
 Reference value :  3.50221e-06
 Reference value :  3.50270e-06
 Reference value :  3.50404e-06
 Reference value :  3.50485e-06
 Reference value :  3.50558e-06
 Reference value :  3.50674e-06
 Reference value :  3.50756e-06
 Reference value :  3.50850e-06
 Reference value :  3.50950e-06
 Reference value :  3.51063e-06
 Reference value :  3.51178e-06
 Reference value :  3.51914e-06
 Reference value :  3.52558e-06
 Reference value :  3.56013e-06
 Reference value :  3.69664e-06
 Reference value :  3.75011e-06
 Reference value :  3.75017e-06
 Reference value :  3.75021e-06
 Reference value :  3.75026e-06
 Reference value :  3.75032e-06
 Reference value :  3.75045e-06
 Reference value :  3.75062e-06
 Reference value :  3.75086e-06
 Reference value :  3.75127e-06
 Reference value :  3.75176e-06
 Reference value :  3.75226e-06
 Reference value :  3.75284e-06
 Reference value :  3.75361e-06
 Reference value :  3.75417e-06
 Reference value :  3.75540e-06
 Reference value :  3.75604e-06
 Reference value :  3.75688e-06
 Reference value :  3.75869e-06
 Reference value :  3.75991e-06
 Reference value :  3.76111e-06
 Reference value :  3.76290e-06
 Reference value :  3.76524e-06
 Reference value :  3.77450e-06
 Reference value :  3.78276e-06
 Reference value :  3.81860e-06
 Reference value :  3.85294e-06
 Reference value :  3.91041e-06
 Reference value :  4.00000e-06
 Reference value :  4.00001e-06
 Reference value :  4.00007e-06
 Reference value :  4.00010e-06
 Reference value :  4.00011e-06
 Reference value :  4.00012e-06
 Reference value :  4.00016e-06
 Reference value :  4.00035e-06
 Reference value :  4.00052e-06
 Reference value :  4.00086e-06
 Reference value :  4.00130e-06
 Reference value :  4.00176e-06
 Reference value :  4.00223e-06
 Reference value :  4.00276e-06
 Reference value :  4.00340e-06
 Reference value :  4.00402e-06
 Reference value :  4.00457e-06
 Reference value :  4.00520e-06
 Reference value :  4.00581e-06
 Reference value :  4.00649e-06
 Reference value :  4.00718e-06
 Reference value :  4.00806e-06
 Reference value :  4.01047e-06
 Reference value :  4.01147e-06
 Reference value :  4.01255e-06
 Reference value :  4.01387e-06
 Reference value :  4.01514e-06
 Reference value :  4.01638e-06
 Reference value :  4.01765e-06
 Reference value :  4.01881e-06
 Reference value :  4.02003e-06
 Reference value :  4.02140e-06
 Reference value :  4.02302e-06
 Reference value :  4.02799e-06
 Reference value :  4.03888e-06
 Reference value :  4.04465e-06
 Reference value :  4.05108e-06
 Reference value :  4.05499e-06
 Reference value :  4.05857e-06
 Reference value :  4.06492e-06
 Reference value :  4.07556e-06
 Reference value :  4.09615e-06
 Reference value :  4.11955e-06
 Reference value :  4.16123e-06
 Reference value :  4.25010e-06
 Reference value :  4.25011e-06
 Reference value :  4.25013e-06
 Reference value :  4.25017e-06
 Reference value :  4.25021e-06
 Reference value :  4.25025e-06
 Reference value :  4.25040e-06
 Reference value :  4.25057e-06
 Reference value :  4.25078e-06
 Reference value :  4.25105e-06
 Reference value :  4.25157e-06
 Reference value :  4.25210e-06
 Reference value :  4.25339e-06
 Reference value :  4.25423e-06
 Reference value :  4.25482e-06
 Reference value :  4.25619e-06
 Reference value :  4.25703e-06
 Reference value :  4.25793e-06
 Reference value :  4.26205e-06
 Reference value :  4.27165e-06
 Reference value :  4.30160e-06
 Reference value :  4.33609e-06
 Reference value :  4.39618e-06
 Reference value :  4.50001e-06
 Reference value :  4.50007e-06
 Reference value :  4.50010e-06
 Reference value :  4.50012e-06
 Reference value :  4.50022e-06
 Reference value :  4.50060e-06
 Reference value :  4.50097e-06
 Reference value :  4.50156e-06
 Reference value :  4.50259e-06
 Reference value :  4.50315e-06
 Reference value :  4.50367e-06
 Reference value :  4.50430e-06
 Reference value :  4.50498e-06
 Reference value :  4.50563e-06
 Reference value :  4.50663e-06
 Reference value :  4.50737e-06
 Reference value :  4.50825e-06
 Reference value :  4.50924e-06
 Reference value :  4.51028e-06
 Reference value :  4.51126e-06
 Reference value :  4.51238e-06
 Reference value :  4.51619e-06
 Reference value :  4.53078e-06
 Reference value :  4.58783e-06
 Reference value :  4.75010e-06
 Reference value :  4.75011e-06
 Reference value :  4.75013e-06
 Reference value :  4.75017e-06
 Reference value :  4.75020e-06
 Reference value :  4.75021e-06
 Reference value :  4.75025e-06
 Reference value :  4.75032e-06
 Reference value :  4.75040e-06
 Reference value :  4.75058e-06
 Reference value :  4.75105e-06
 Reference value :  4.75158e-06
 Reference value :  4.75211e-06
 Reference value :  4.75266e-06
 Reference value :  4.75340e-06
 Reference value :  4.75422e-06
 Reference value :  4.75481e-06
 Reference value :  4.75625e-06
 Reference value :  4.75711e-06
 Reference value :  4.75967e-06
 Reference value :  4.76563e-06
 Reference value :  4.78344e-06
 Reference value :  4.83756e-06
 Reference value :  5.00000e-06
 Reference value :  5.00001e-06
 Reference value :  5.00003e-06
 Reference value :  5.00010e-06
 Reference value :  5.00012e-06
 Reference value :  5.00022e-06
 Reference value :  5.00035e-06
 Reference value :  5.00097e-06
 Reference value :  5.00211e-06
 Reference value :  5.00259e-06
 Reference value :  5.00374e-06
 Reference value :  5.00441e-06
 Reference value :  5.00498e-06
 Reference value :  5.00559e-06
 Reference value :  5.00609e-06
 Reference value :  5.00754e-06
 Reference value :  5.00988e-06
 Reference value :  5.01170e-06
 Reference value :  5.01325e-06
 Reference value :  5.01486e-06
 Reference value :  5.01601e-06
 Reference value :  5.01705e-06
 Reference value :  5.01823e-06
 Reference value :  5.01944e-06
 Reference value :  5.02083e-06
 Reference value :  5.02209e-06
 Reference value :  5.02417e-06
 Reference value :  5.03067e-06
 Reference value :  5.03705e-06
 Reference value :  5.04405e-06
 Reference value :  5.05824e-06
 Reference value :  5.06429e-06
 Reference value :  5.07737e-06
 Reference value :  5.08434e-06
 Reference value :  5.09206e-06
 Reference value :  5.10754e-06
 Reference value :  5.13992e-06
 Reference value :  5.21657e-06
 Reference value :  5.25011e-06
 Reference value :  5.25013e-06
 Reference value :  5.25020e-06
 Reference value :  5.25022e-06
 Reference value :  5.25026e-06
 Reference value :  5.25040e-06
 Reference value :  5.25058e-06
 Reference value :  5.25104e-06
 Reference value :  5.25208e-06
 Reference value :  5.25259e-06
 Reference value :  5.25336e-06
 Reference value :  5.25414e-06
 Reference value :  5.25472e-06
 Reference value :  5.25540e-06
 Reference value :  5.25606e-06
 Reference value :  5.25690e-06
 Reference value :  5.25952e-06
 Reference value :  5.26508e-06
 Reference value :  5.28137e-06
 Reference value :  5.33104e-06
 Reference value :  5.48748e-06
 Reference value :  5.50001e-06
 Reference value :  5.50007e-06
 Reference value :  5.50010e-06
 Reference value :  5.50011e-06
 Reference value :  5.50016e-06
 Reference value :  5.50022e-06
 Reference value :  5.50035e-06
 Reference value :  5.50060e-06
 Reference value :  5.50097e-06
 Reference value :  5.50156e-06
 Reference value :  5.50257e-06
 Reference value :  5.50312e-06
 Reference value :  5.50371e-06
 Reference value :  5.50444e-06
 Reference value :  5.50590e-06
 Reference value :  5.50692e-06
 Reference value :  5.50765e-06
 Reference value :  5.50849e-06
 Reference value :  5.50953e-06
 Reference value :  5.51167e-06
 Reference value :  5.51295e-06
 Reference value :  5.51697e-06
 Reference value :  5.52730e-06
 Reference value :  5.53872e-06
 Reference value :  5.59630e-06
 Reference value :  5.75010e-06
 Reference value :  5.75011e-06
 Reference value :  5.75013e-06
 Reference value :  5.75020e-06
 Reference value :  5.75022e-06
 Reference value :  5.75032e-06
 Reference value :  5.75058e-06
 Reference value :  5.75105e-06
 Reference value :  5.75157e-06
 Reference value :  5.75211e-06
 Reference value :  5.75339e-06
 Reference value :  5.75421e-06
 Reference value :  5.75480e-06
 Reference value :  5.75549e-06
 Reference value :  5.75624e-06
 Reference value :  5.75709e-06
 Reference value :  5.75805e-06
 Reference value :  5.75898e-06
 Reference value :  5.76013e-06
 Reference value :  5.76138e-06
 Reference value :  5.76333e-06
 Reference value :  5.76915e-06
 Reference value :  5.78359e-06
 Reference value :  5.82006e-06
 Reference value :  5.91191e-06
 Reference value :  6.00001e-06
 Reference value :  6.00003e-06
 Reference value :  6.00007e-06
 Reference value :  6.00010e-06
 Reference value :  6.00012e-06
 Reference value :  6.00022e-06
 Reference value :  6.00035e-06
 Reference value :  6.00060e-06
 Reference value :  6.00097e-06
 Reference value :  6.00156e-06
 Reference value :  6.00211e-06
 Reference value :  6.00259e-06
 Reference value :  6.00374e-06
 Reference value :  6.00498e-06
 Reference value :  6.00559e-06
 Reference value :  6.00610e-06
 Reference value :  6.00669e-06
 Reference value :  6.00824e-06
 Reference value :  6.00923e-06
 Reference value :  6.01078e-06
 Reference value :  6.01176e-06
 Reference value :  6.01415e-06
 Reference value :  6.01511e-06
 Reference value :  6.01606e-06
 Reference value :  6.01724e-06
 Reference value :  6.01953e-06
 Reference value :  6.02088e-06
 Reference value :  6.02413e-06
 Reference value :  6.02945e-06
 Reference value :  6.03297e-06
 Reference value :  6.03827e-06
 Reference value :  6.04369e-06
 Reference value :  6.05083e-06
 Reference value :  6.05543e-06
 Reference value :  6.05992e-06
 Reference value :  6.06655e-06
 Reference value :  6.08112e-06
 Reference value :  6.09113e-06
 Reference value :  6.11116e-06
 Reference value :  6.17880e-06
 Reference value :  6.25010e-06
 Reference value :  6.25011e-06
 Reference value :  6.25017e-06
 Reference value :  6.25020e-06
 Reference value :  6.25022e-06
 Reference value :  6.25032e-06
 Reference value :  6.25057e-06
 Reference value :  6.25075e-06
 Reference value :  6.25152e-06
 Reference value :  6.25258e-06
 Reference value :  6.25336e-06
 Reference value :  6.25420e-06
 Reference value :  6.25480e-06
 Reference value :  6.25549e-06
 Reference value :  6.25617e-06
 Reference value :  6.25701e-06
 Reference value :  6.25790e-06
 Reference value :  6.26198e-06
 Reference value :  6.27140e-06
 Reference value :  6.30019e-06
 Reference value :  6.38915e-06
 Reference value :  6.50000e-06
 Reference value :  6.50003e-06
 Reference value :  6.50010e-06
 Reference value :  6.50012e-06
 Reference value :  6.50022e-06
 Reference value :  6.50060e-06
 Reference value :  6.50156e-06
 Reference value :  6.50259e-06
 Reference value :  6.50367e-06
 Reference value :  6.50498e-06
 Reference value :  6.50563e-06
 Reference value :  6.50663e-06
 Reference value :  6.50737e-06
 Reference value :  6.50825e-06
 Reference value :  6.50923e-06
 Reference value :  6.51125e-06
 Reference value :  6.51237e-06
 Reference value :  6.51618e-06
 Reference value :  6.53068e-06
 Reference value :  6.58722e-06
 Reference value :  6.75010e-06
 Reference value :  6.75013e-06
 Reference value :  6.75017e-06
 Reference value :  6.75021e-06
 Reference value :  6.75025e-06
 Reference value :  6.75032e-06
 Reference value :  6.75058e-06
 Reference value :  6.75105e-06
 Reference value :  6.75211e-06
 Reference value :  6.75340e-06
 Reference value :  6.75422e-06
 Reference value :  6.75481e-06
 Reference value :  6.75625e-06
 Reference value :  6.75712e-06
 Reference value :  6.75806e-06
 Reference value :  6.76219e-06
 Reference value :  6.77230e-06
 Reference value :  6.80257e-06
 Reference value :  6.83707e-06
 Reference value :  6.89602e-06
 Reference value :  7.00000e-06
 Reference value :  7.00001e-06
 Reference value :  7.00003e-06
 Reference value :  7.00010e-06
 Reference value :  7.00012e-06
 Reference value :  7.00022e-06
 Reference value :  7.00060e-06
 Reference value :  7.00097e-06
 Reference value :  7.00156e-06
 Reference value :  7.00259e-06
 Reference value :  7.00315e-06
 Reference value :  7.00374e-06
 Reference value :  7.00441e-06
 Reference value :  7.00498e-06
 Reference value :  7.00559e-06
 Reference value :  7.00609e-06
 Reference value :  7.00669e-06
 Reference value :  7.00832e-06
 Reference value :  7.01170e-06
 Reference value :  7.01325e-06
 Reference value :  7.01485e-06
 Reference value :  7.01600e-06
 Reference value :  7.01705e-06
 Reference value :  7.01820e-06
 Reference value :  7.01941e-06
 Reference value :  7.02203e-06
 Reference value :  7.02406e-06
 Reference value :  7.03048e-06
 Reference value :  7.04668e-06
 Reference value :  7.06209e-06
 Reference value :  7.11037e-06
 Reference value :  7.13853e-06
 Reference value :  7.15750e-06
 Reference value :  7.17572e-06
 Reference value :  7.20290e-06
 Reference value :  7.25010e-06
 Reference value :  7.25013e-06
 Reference value :  7.25020e-06
 Reference value :  7.25022e-06
 Reference value :  7.25032e-06
 Reference value :  7.25058e-06
 Reference value :  7.25075e-06
 Reference value :  7.25152e-06
 Reference value :  7.25258e-06
 Reference value :  7.25336e-06
 Reference value :  7.25414e-06
 Reference value :  7.25472e-06
 Reference value :  7.25606e-06
 Reference value :  7.25690e-06
 Reference value :  7.25779e-06
 Reference value :  7.25952e-06
 Reference value :  7.26508e-06
 Reference value :  7.28127e-06
 Reference value :  7.33046e-06
 Reference value :  7.48468e-06
 Reference value :  7.50001e-06
 Reference value :  7.50003e-06
 Reference value :  7.50010e-06
 Reference value :  7.50012e-06
 Reference value :  7.50022e-06
 Reference value :  7.50060e-06
 Reference value :  7.50097e-06
 Reference value :  7.50156e-06
 Reference value :  7.50212e-06
 Reference value :  7.50257e-06
 Reference value :  7.50312e-06
 Reference value :  7.50371e-06
 Reference value :  7.50512e-06
 Reference value :  7.50590e-06
 Reference value :  7.50692e-06
 Reference value :  7.50765e-06
 Reference value :  7.50849e-06
 Reference value :  7.50953e-06
 Reference value :  7.51167e-06
 Reference value :  7.51294e-06
 Reference value :  7.51694e-06
 Reference value :  7.52721e-06
 Reference value :  7.55753e-06
 Reference value :  7.67155e-06
 Reference value :  7.75011e-06
 Reference value :  7.75017e-06
 Reference value :  7.75021e-06
 Reference value :  7.75025e-06
 Reference value :  7.75040e-06
 Reference value :  7.75078e-06
 Reference value :  7.75157e-06
 Reference value :  7.75210e-06
 Reference value :  7.75339e-06
 Reference value :  7.75421e-06
 Reference value :  7.75480e-06
 Reference value :  7.75549e-06
 Reference value :  7.75624e-06
 Reference value :  7.75709e-06
 Reference value :  7.75805e-06
 Reference value :  7.75898e-06
 Reference value :  7.76138e-06
 Reference value :  7.76557e-06
 Reference value :  7.77510e-06
 Reference value :  7.79807e-06
 Reference value :  7.82010e-06
 Reference value :  7.91208e-06
 Reference value :  8.00001e-06
 Reference value :  8.00007e-06
 Reference value :  8.00011e-06
 Reference value :  8.00016e-06
 Reference value :  8.00022e-06
 Reference value :  8.00060e-06
 Reference value :  8.00097e-06
 Reference value :  8.00156e-06
 Reference value :  8.00211e-06
 Reference value :  8.00259e-06
 Reference value :  8.00315e-06
 Reference value :  8.00374e-06
 Reference value :  8.00497e-06
 Reference value :  8.00558e-06
 Reference value :  8.00609e-06
 Reference value :  8.00669e-06
 Reference value :  8.00823e-06
 Reference value :  8.00907e-06
 Reference value :  8.00996e-06
 Reference value :  8.01078e-06
 Reference value :  8.01176e-06
 Reference value :  8.01282e-06
 Reference value :  8.01391e-06
 Reference value :  8.01610e-06
 Reference value :  8.01789e-06
 Reference value :  8.01955e-06
 Reference value :  8.02482e-06
 Reference value :  8.03018e-06
 Reference value :  8.03608e-06
 Reference value :  8.04303e-06
 Reference value :  8.05161e-06
 Reference value :  8.05791e-06
 Reference value :  8.06466e-06
 Reference value :  8.07256e-06
 Reference value :  8.09540e-06
 Reference value :  8.13868e-06
 Reference value :  8.25010e-06
 Reference value :  8.25011e-06
 Reference value :  8.25013e-06
 Reference value :  8.25017e-06
 Reference value :  8.25020e-06
 Reference value :  8.25021e-06
 Reference value :  8.25025e-06
 Reference value :  8.25032e-06
 Reference value :  8.25044e-06
 Reference value :  8.25061e-06
 Reference value :  8.25081e-06
 Reference value :  8.25166e-06
 Reference value :  8.25218e-06
 Reference value :  8.25274e-06
 Reference value :  8.25349e-06
 Reference value :  8.25438e-06
 Reference value :  8.25531e-06
 Reference value :  8.25627e-06
 Reference value :  8.25893e-06
 Reference value :  8.26351e-06
 Reference value :  8.27407e-06
 Reference value :  8.28529e-06
 Reference value :  8.34346e-06
 Reference value :  8.42101e-06
No. of Data Rows : 1292
ngspice-44 done
