
Note: Compatibility modes selected: hs a


Circuit: ** sch_path: /home/issa/cace/sar-adc-using-sky130-pdk/runs/run_2025-09-07_20-22-19/parameters/offset_error/run_3/offset_error.sch

option SCALE: Scale is set to 1e-06 for instance and model parameters
option SCALE: Scale is set to 1e-06 for instance and model parameters
option SCALE: Scale is set to 1e-06 for instance and model parameters
option SCALE: Scale is set to 1e-06 for instance and model parameters
Doing analysis at TEMP = 27.000000 and TNOM = 27.000000

Using KLU as Direct Linear Solver
Operating point simulation skipped by 'uic',
  now using transient initial conditions.
 Reference value :  1.00000e-12
 Reference value :  1.02800e-12
 Reference value :  1.08400e-12
 Reference value :  1.19600e-12
 Reference value :  1.42000e-12
 Reference value :  1.73435e-12
 Reference value :  3.32167e-12
 Reference value :  6.47098e-12
 Reference value :  9.61481e-12
 Reference value :  1.99589e-11
 Reference value :  5.66911e-11
 Reference value :  1.00000e-10
 Reference value :  1.04898e-10
 Reference value :  1.14693e-10
 Reference value :  1.34283e-10
 Reference value :  1.73465e-10
 Reference value :  2.51827e-10
 Reference value :  4.08551e-10
 Reference value :  6.66138e-10
 Reference value :  9.72273e-10
 Reference value :  1.38824e-09
 Reference value :  1.93277e-09
 Reference value :  2.51064e-09
 Reference value :  3.34594e-09
 Reference value :  4.23217e-09
 Reference value :  5.08554e-09
 Reference value :  6.00344e-09
 Reference value :  7.14286e-09
 Reference value :  8.34713e-09
 Reference value :  9.24683e-09
 Reference value :  1.01988e-08
 Reference value :  1.12165e-08
 Reference value :  1.22683e-08
 Reference value :  1.59148e-08
 Reference value :  2.05458e-08
 Reference value :  2.26758e-08
 Reference value :  2.98934e-08
 Reference value :  4.13332e-08
 Reference value :  1.03555e-07
 Reference value :  2.43968e-07
 Reference value :  2.50110e-07
 Reference value :  2.50200e-07
 Reference value :  2.50253e-07
 Reference value :  2.50511e-07
 Reference value :  2.51215e-07
 Reference value :  2.51621e-07
 Reference value :  2.53380e-07
 Reference value :  2.53899e-07
 Reference value :  2.55102e-07
 Reference value :  2.56493e-07
 Reference value :  2.60632e-07
 Reference value :  2.79147e-07
 Reference value :  4.23902e-07
 Reference value :  5.00010e-07
 Reference value :  5.00070e-07
 Reference value :  5.00108e-07
 Reference value :  5.00156e-07
 Reference value :  5.00500e-07
 Reference value :  5.01286e-07
 Reference value :  5.02180e-07
 Reference value :  5.03934e-07
 Reference value :  5.06733e-07
 Reference value :  5.07963e-07
 Reference value :  5.12028e-07
 Reference value :  5.15240e-07
 Reference value :  5.21525e-07
 Reference value :  5.54342e-07
 Reference value :  7.50100e-07
 Reference value :  7.50170e-07
 Reference value :  7.50255e-07
 Reference value :  7.50684e-07
 Reference value :  7.51387e-07
 Reference value :  7.52367e-07
 Reference value :  7.53776e-07
 Reference value :  7.54418e-07
 Reference value :  7.55798e-07
 Reference value :  7.57610e-07
 Reference value :  7.58440e-07
 Reference value :  7.62181e-07
 Reference value :  7.68446e-07
 Reference value :  7.75470e-07
 Reference value :  8.13322e-07
 Reference value :  8.60930e-07
 Reference value :  1.00000e-06
 Reference value :  1.00003e-06
 Reference value :  1.00010e-06
 Reference value :  1.00012e-06
 Reference value :  1.00034e-06
 Reference value :  1.00128e-06
 Reference value :  1.00219e-06
 Reference value :  1.00329e-06
 Reference value :  1.00442e-06
 Reference value :  1.00557e-06
 Reference value :  1.00670e-06
 Reference value :  1.00973e-06
 Reference value :  1.01172e-06
 Reference value :  1.01368e-06
 Reference value :  1.01547e-06
 Reference value :  1.01854e-06
 Reference value :  1.02132e-06
 Reference value :  1.04098e-06
 Reference value :  1.19456e-06
 Reference value :  1.25013e-06
 Reference value :  1.25022e-06
 Reference value :  1.25044e-06
 Reference value :  1.25138e-06
 Reference value :  1.25303e-06
 Reference value :  1.25438e-06
 Reference value :  1.25665e-06
 Reference value :  1.26550e-06
 Reference value :  1.34418e-06
 Reference value :  1.50003e-06
 Reference value :  1.50011e-06
 Reference value :  1.50022e-06
 Reference value :  1.50083e-06
 Reference value :  1.50176e-06
 Reference value :  1.50265e-06
 Reference value :  1.50395e-06
 Reference value :  1.50553e-06
 Reference value :  1.50734e-06
 Reference value :  1.50903e-06
 Reference value :  1.51242e-06
 Reference value :  1.54746e-06
 Reference value :  1.75011e-06
 Reference value :  1.75020e-06
 Reference value :  1.75032e-06
 Reference value :  1.75094e-06
 Reference value :  1.75185e-06
 Reference value :  1.75377e-06
 Reference value :  1.75506e-06
 Reference value :  1.75759e-06
 Reference value :  1.75934e-06
 Reference value :  1.76491e-06
 Reference value :  1.80903e-06
 Reference value :  2.00001e-06
 Reference value :  2.00010e-06
 Reference value :  2.00022e-06
 Reference value :  2.00083e-06
 Reference value :  2.00176e-06
 Reference value :  2.00268e-06
 Reference value :  2.00391e-06
 Reference value :  2.00499e-06
 Reference value :  2.00556e-06
 Reference value :  2.00670e-06
 Reference value :  2.00973e-06
 Reference value :  2.01173e-06
 Reference value :  2.01369e-06
 Reference value :  2.01547e-06
 Reference value :  2.01853e-06
 Reference value :  2.02129e-06
 Reference value :  2.04079e-06
 Reference value :  2.18118e-06
 Reference value :  2.25013e-06
 Reference value :  2.25022e-06
 Reference value :  2.25069e-06
 Reference value :  2.25138e-06
 Reference value :  2.25302e-06
 Reference value :  2.25437e-06
 Reference value :  2.25569e-06
 Reference value :  2.26144e-06
 Reference value :  2.30569e-06
 Reference value :  2.50000e-06
 Reference value :  2.50007e-06
 Reference value :  2.50016e-06
 Reference value :  2.50050e-06
 Reference value :  2.50129e-06
 Reference value :  2.50218e-06
 Reference value :  2.50395e-06
 Reference value :  2.50553e-06
 Reference value :  2.50734e-06
 Reference value :  2.50903e-06
 Reference value :  2.51241e-06
 Reference value :  2.54755e-06
 Reference value :  2.75011e-06
 Reference value :  2.75020e-06
 Reference value :  2.75032e-06
 Reference value :  2.75094e-06
 Reference value :  2.75185e-06
 Reference value :  2.75376e-06
 Reference value :  2.75505e-06
 Reference value :  2.75758e-06
 Reference value :  2.75934e-06
 Reference value :  2.76488e-06
 Reference value :  2.80817e-06
 Reference value :  3.00001e-06
 Reference value :  3.00010e-06
 Reference value :  3.00016e-06
 Reference value :  3.00050e-06
 Reference value :  3.00128e-06
 Reference value :  3.00219e-06
 Reference value :  3.00329e-06
 Reference value :  3.00441e-06
 Reference value :  3.00556e-06
 Reference value :  3.00670e-06
 Reference value :  3.00973e-06
 Reference value :  3.01174e-06
 Reference value :  3.01369e-06
 Reference value :  3.01546e-06
 Reference value :  3.01852e-06
 Reference value :  3.02305e-06
 Reference value :  3.05628e-06
 Reference value :  3.13603e-06
 Reference value :  3.25011e-06
 Reference value :  3.25020e-06
 Reference value :  3.25032e-06
 Reference value :  3.25095e-06
 Reference value :  3.25185e-06
 Reference value :  3.25375e-06
 Reference value :  3.25502e-06
 Reference value :  3.25760e-06
 Reference value :  3.27247e-06
 Reference value :  3.34115e-06
 Reference value :  3.50003e-06
 Reference value :  3.50012e-06
 Reference value :  3.50034e-06
 Reference value :  3.50129e-06
 Reference value :  3.50218e-06
 Reference value :  3.50395e-06
 Reference value :  3.50553e-06
 Reference value :  3.50734e-06
 Reference value :  3.50903e-06
 Reference value :  3.51241e-06
 Reference value :  3.54759e-06
 Reference value :  3.75011e-06
 Reference value :  3.75020e-06
 Reference value :  3.75032e-06
 Reference value :  3.75094e-06
 Reference value :  3.75185e-06
 Reference value :  3.75376e-06
 Reference value :  3.75505e-06
 Reference value :  3.75758e-06
 Reference value :  3.75933e-06
 Reference value :  3.76832e-06
 Reference value :  3.84840e-06
 Reference value :  4.00003e-06
 Reference value :  4.00012e-06
 Reference value :  4.00034e-06
 Reference value :  4.00128e-06
 Reference value :  4.00219e-06
 Reference value :  4.00329e-06
 Reference value :  4.00441e-06
 Reference value :  4.00556e-06
 Reference value :  4.00670e-06
 Reference value :  4.00973e-06
 Reference value :  4.01174e-06
 Reference value :  4.01368e-06
 Reference value :  4.01545e-06
 Reference value :  4.01852e-06
 Reference value :  4.02304e-06
 Reference value :  4.04939e-06
 Reference value :  4.07575e-06
 Reference value :  4.10731e-06
 Reference value :  4.23332e-06
 Reference value :  4.25013e-06
 Reference value :  4.25022e-06
 Reference value :  4.25069e-06
 Reference value :  4.25138e-06
 Reference value :  4.25302e-06
 Reference value :  4.25437e-06
 Reference value :  4.25663e-06
 Reference value :  4.26141e-06
 Reference value :  4.30483e-06
 Reference value :  4.50001e-06
 Reference value :  4.50010e-06
 Reference value :  4.50022e-06
 Reference value :  4.50083e-06
 Reference value :  4.50176e-06
 Reference value :  4.50265e-06
 Reference value :  4.50395e-06
 Reference value :  4.50553e-06
 Reference value :  4.50734e-06
 Reference value :  4.50903e-06
 Reference value :  4.51241e-06
 Reference value :  4.54762e-06
 Reference value :  4.75011e-06
 Reference value :  4.75020e-06
 Reference value :  4.75032e-06
 Reference value :  4.75094e-06
 Reference value :  4.75185e-06
 Reference value :  4.75376e-06
 Reference value :  4.75505e-06
 Reference value :  4.75757e-06
 Reference value :  4.76074e-06
 Reference value :  4.76831e-06
 Reference value :  4.84791e-06
 Reference value :  5.00003e-06
 Reference value :  5.00012e-06
 Reference value :  5.00034e-06
 Reference value :  5.00128e-06
 Reference value :  5.00219e-06
 Reference value :  5.00329e-06
 Reference value :  5.00441e-06
 Reference value :  5.00556e-06
 Reference value :  5.00670e-06
 Reference value :  5.00973e-06
 Reference value :  5.01174e-06
 Reference value :  5.01368e-06
 Reference value :  5.01652e-06
 Reference value :  5.01995e-06
 Reference value :  5.02754e-06
 Reference value :  5.05021e-06
 Reference value :  5.07402e-06
 Reference value :  5.11971e-06
 Reference value :  5.25010e-06
 Reference value :  5.25017e-06
 Reference value :  5.25026e-06
 Reference value :  5.25068e-06
 Reference value :  5.25138e-06
 Reference value :  5.25302e-06
 Reference value :  5.25437e-06
 Reference value :  5.25662e-06
 Reference value :  5.26532e-06
 Reference value :  5.33984e-06
 Reference value :  5.50003e-06
 Reference value :  5.50012e-06
 Reference value :  5.50034e-06
 Reference value :  5.50129e-06
 Reference value :  5.50218e-06
 Reference value :  5.50395e-06
 Reference value :  5.50553e-06
 Reference value :  5.50734e-06
 Reference value :  5.50903e-06
 Reference value :  5.51241e-06
 Reference value :  5.54761e-06
 Reference value :  5.75011e-06
 Reference value :  5.75020e-06
 Reference value :  5.75032e-06
 Reference value :  5.75094e-06
 Reference value :  5.75185e-06
 Reference value :  5.75376e-06
 Reference value :  5.75504e-06
 Reference value :  5.75670e-06
 Reference value :  5.75842e-06
 Reference value :  5.76214e-06
 Reference value :  5.78725e-06
 Reference value :  6.00000e-06
 Reference value :  6.00007e-06
 Reference value :  6.00012e-06
 Reference value :  6.00034e-06
 Reference value :  6.00128e-06
 Reference value :  6.00219e-06
 Reference value :  6.00329e-06
 Reference value :  6.00441e-06
 Reference value :  6.00556e-06
 Reference value :  6.00670e-06
 Reference value :  6.00973e-06
 Reference value :  6.01174e-06
 Reference value :  6.01368e-06
 Reference value :  6.01651e-06
 Reference value :  6.01993e-06
 Reference value :  6.02747e-06
 Reference value :  6.03425e-06
 Reference value :  6.06495e-06
 Reference value :  6.25010e-06
 Reference value :  6.25017e-06
 Reference value :  6.25026e-06
 Reference value :  6.25069e-06
 Reference value :  6.25138e-06
 Reference value :  6.25302e-06
 Reference value :  6.25437e-06
 Reference value :  6.25662e-06
 Reference value :  6.26532e-06
 Reference value :  6.33943e-06
 Reference value :  6.50003e-06
 Reference value :  6.50012e-06
 Reference value :  6.50034e-06
 Reference value :  6.50129e-06
 Reference value :  6.50218e-06
 Reference value :  6.50395e-06
 Reference value :  6.50553e-06
 Reference value :  6.50734e-06
 Reference value :  6.50903e-06
 Reference value :  6.51241e-06
 Reference value :  6.54764e-06
 Reference value :  6.75011e-06
 Reference value :  6.75020e-06
 Reference value :  6.75032e-06
 Reference value :  6.75094e-06
 Reference value :  6.75185e-06
 Reference value :  6.75376e-06
 Reference value :  6.75504e-06
 Reference value :  6.75757e-06
 Reference value :  6.75933e-06
 Reference value :  6.76829e-06
 Reference value :  6.84729e-06
 Reference value :  7.00003e-06
 Reference value :  7.00012e-06
 Reference value :  7.00034e-06
 Reference value :  7.00128e-06
 Reference value :  7.00219e-06
 Reference value :  7.00329e-06
 Reference value :  7.00441e-06
 Reference value :  7.00556e-06
 Reference value :  7.00670e-06
 Reference value :  7.00973e-06
 Reference value :  7.01175e-06
 Reference value :  7.01368e-06
 Reference value :  7.01652e-06
 Reference value :  7.01995e-06
 Reference value :  7.02662e-06
 Reference value :  7.06644e-06
 Reference value :  7.25010e-06
 Reference value :  7.25017e-06
 Reference value :  7.25026e-06
 Reference value :  7.25069e-06
 Reference value :  7.25138e-06
 Reference value :  7.25302e-06
 Reference value :  7.25436e-06
 Reference value :  7.25662e-06
 Reference value :  7.26532e-06
 Reference value :  7.33910e-06
 Reference value :  7.50001e-06
 Reference value :  7.50010e-06
 Reference value :  7.50016e-06
 Reference value :  7.50034e-06
 Reference value :  7.50129e-06
 Reference value :  7.50218e-06
 Reference value :  7.50395e-06
 Reference value :  7.50553e-06
 Reference value :  7.50734e-06
 Reference value :  7.50903e-06
 Reference value :  7.51241e-06
 Reference value :  7.54767e-06
 Reference value :  7.75011e-06
 Reference value :  7.75020e-06
 Reference value :  7.75032e-06
 Reference value :  7.75094e-06
 Reference value :  7.75185e-06
 Reference value :  7.75376e-06
 Reference value :  7.75504e-06
 Reference value :  7.75757e-06
 Reference value :  7.75933e-06
 Reference value :  7.76829e-06
 Reference value :  7.84674e-06
 Reference value :  8.00003e-06
 Reference value :  8.00012e-06
 Reference value :  8.00034e-06
 Reference value :  8.00128e-06
 Reference value :  8.00219e-06
 Reference value :  8.00329e-06
 Reference value :  8.00441e-06
 Reference value :  8.00556e-06
 Reference value :  8.00670e-06
 Reference value :  8.00843e-06
 Reference value :  8.00997e-06
 Reference value :  8.01289e-06
 Reference value :  8.01580e-06
 Reference value :  8.02004e-06
 Reference value :  8.06008e-06
 Reference value :  8.23268e-06
 Reference value :  8.25013e-06
 Reference value :  8.25022e-06
 Reference value :  8.25045e-06
 Reference value :  8.25139e-06
 Reference value :  8.25303e-06
 Reference value :  8.25475e-06
 Reference value :  8.25789e-06
 Reference value :  8.27124e-06
 Reference value :  8.38384e-06
 Reference value :  8.50000e-06
 Reference value :  8.50000e-06
 Reference value :  8.50001e-06
 Reference value :  8.50008e-06
 Reference value :  8.50012e-06
 Reference value :  8.50027e-06
 Reference value :  8.50119e-06
 Reference value :  8.50216e-06
 Reference value :  8.50400e-06
 Reference value :  8.50540e-06
 Reference value :  8.50682e-06
 Reference value :  8.51420e-06
 Reference value :  8.52742e-06
 Reference value :  8.53204e-06
 Reference value :  8.53956e-06
 Reference value :  8.54733e-06
 Reference value :  8.57675e-06
 Reference value :  8.73034e-06
 Reference value :  8.75017e-06
 Reference value :  8.75022e-06
 Reference value :  8.75045e-06
 Reference value :  8.75138e-06
 Reference value :  8.75302e-06
 Reference value :  8.75445e-06
 Reference value :  8.75677e-06
 Reference value :  8.76613e-06
 Reference value :  8.83814e-06
 Reference value :  9.00003e-06
 Reference value :  9.00012e-06
 Reference value :  9.00034e-06
 Reference value :  9.00129e-06
 Reference value :  9.00218e-06
 Reference value :  9.00393e-06
 Reference value :  9.00673e-06
 Reference value :  9.00799e-06
 Reference value :  9.01205e-06
 Reference value :  9.01515e-06
 Reference value :  9.02118e-06
 Reference value :  9.05288e-06
 Reference value :  9.25010e-06
 Reference value :  9.25017e-06
 Reference value :  9.25022e-06
 Reference value :  9.25044e-06
 Reference value :  9.25138e-06
 Reference value :  9.25302e-06
 Reference value :  9.25439e-06
 Reference value :  9.25670e-06
 Reference value :  9.25932e-06
 Reference value :  9.26720e-06
 Reference value :  9.30018e-06
 Reference value :  9.50000e-06
 Reference value :  9.50007e-06
 Reference value :  9.50016e-06
 Reference value :  9.50050e-06
 Reference value :  9.50128e-06
 Reference value :  9.50219e-06
 Reference value :  9.50329e-06
 Reference value :  9.50442e-06
 Reference value :  9.50556e-06
 Reference value :  9.50670e-06
 Reference value :  9.50973e-06
 Reference value :  9.51070e-06
 Reference value :  9.51284e-06
 Reference value :  9.51452e-06
 Reference value :  9.51646e-06
 Reference value :  9.51977e-06
 Reference value :  9.53254e-06
 Reference value :  9.63840e-06
 Reference value :  9.75011e-06
 Reference value :  9.75020e-06
 Reference value :  9.75032e-06
 Reference value :  9.75094e-06
 Reference value :  9.75185e-06
 Reference value :  9.75374e-06
 Reference value :  9.75503e-06
 Reference value :  9.75766e-06
 Reference value :  9.77242e-06
 Reference value :  9.90251e-06
 Reference value :  1.00000e-05
 Reference value :  1.00001e-05
 Reference value :  1.00003e-05
 Reference value :  1.00013e-05
 Reference value :  1.00022e-05
 Reference value :  1.00039e-05
 Reference value :  1.00055e-05
 Reference value :  1.00073e-05
 Reference value :  1.00090e-05
 Reference value :  1.00112e-05
 Reference value :  1.00289e-05
 Reference value :  1.02501e-05
 Reference value :  1.02502e-05
 Reference value :  1.02503e-05
 Reference value :  1.02507e-05
 Reference value :  1.02514e-05
 Reference value :  1.02530e-05
 Reference value :  1.02544e-05
 Reference value :  1.02567e-05
 Reference value :  1.02584e-05
 Reference value :  1.02621e-05
 Reference value :  1.02874e-05
 Reference value :  1.04247e-05
 Reference value :  1.05001e-05
 Reference value :  1.05002e-05
 Reference value :  1.05005e-05
 Reference value :  1.05013e-05
 Reference value :  1.05022e-05
 Reference value :  1.05033e-05
 Reference value :  1.05044e-05
 Reference value :  1.05056e-05
 Reference value :  1.05067e-05
 Reference value :  1.05097e-05
 Reference value :  1.05117e-05
 Reference value :  1.05137e-05
 Reference value :  1.05155e-05
 Reference value :  1.05185e-05
 Reference value :  1.05231e-05
 Reference value :  1.05577e-05
 Reference value :  1.07501e-05
 Reference value :  1.07502e-05
 Reference value :  1.07503e-05
 Reference value :  1.07507e-05
 Reference value :  1.07514e-05
 Reference value :  1.07530e-05
 Reference value :  1.07544e-05
 Reference value :  1.07567e-05
 Reference value :  1.07655e-05
 Reference value :  1.08386e-05
 Reference value :  1.10000e-05
 Reference value :  1.10001e-05
 Reference value :  1.10003e-05
 Reference value :  1.10013e-05
 Reference value :  1.10022e-05
 Reference value :  1.10039e-05
 Reference value :  1.10055e-05
 Reference value :  1.10073e-05
 Reference value :  1.10090e-05
 Reference value :  1.10124e-05
 Reference value :  1.10475e-05
 Reference value :  1.12501e-05
 Reference value :  1.12502e-05
 Reference value :  1.12503e-05
 Reference value :  1.12509e-05
 Reference value :  1.12518e-05
 Reference value :  1.12538e-05
 Reference value :  1.12550e-05
 Reference value :  1.12576e-05
 Reference value :  1.12593e-05
 Reference value :  1.12683e-05
 Reference value :  1.13484e-05
 Reference value :  1.15000e-05
 Reference value :  1.15001e-05
 Reference value :  1.15003e-05
 Reference value :  1.15013e-05
 Reference value :  1.15022e-05
 Reference value :  1.15033e-05
 Reference value :  1.15044e-05
 Reference value :  1.15056e-05
 Reference value :  1.15067e-05
 Reference value :  1.15097e-05
 Reference value :  1.15117e-05
 Reference value :  1.15137e-05
 Reference value :  1.15155e-05
 Reference value :  1.15187e-05
 Reference value :  1.15233e-05
 Reference value :  1.15573e-05
 Reference value :  1.16393e-05
 Reference value :  1.17501e-05
 Reference value :  1.17502e-05
 Reference value :  1.17503e-05
 Reference value :  1.17507e-05
 Reference value :  1.17514e-05
 Reference value :  1.17530e-05
 Reference value :  1.17544e-05
 Reference value :  1.17567e-05
 Reference value :  1.17655e-05
 Reference value :  1.18386e-05
 Reference value :  1.20000e-05
 Reference value :  1.20001e-05
 Reference value :  1.20002e-05
 Reference value :  1.20008e-05
 Reference value :  1.20018e-05
 Reference value :  1.20026e-05
 Reference value :  1.20039e-05
 Reference value :  1.20055e-05
 Reference value :  1.20073e-05
 Reference value :  1.20090e-05
 Reference value :  1.20124e-05
 Reference value :  1.20475e-05
 Reference value :  1.22501e-05
 Reference value :  1.22502e-05
 Reference value :  1.22503e-05
 Reference value :  1.22509e-05
 Reference value :  1.22518e-05
 Reference value :  1.22538e-05
 Reference value :  1.22550e-05
 Reference value :  1.22576e-05
 Reference value :  1.22593e-05
 Reference value :  1.22649e-05
 Reference value :  1.23077e-05
 Reference value :  1.25000e-05
 Reference value :  1.25001e-05
 Reference value :  1.25002e-05
 Reference value :  1.25005e-05
 Reference value :  1.25013e-05
 Reference value :  1.25022e-05
 Reference value :  1.25033e-05
 Reference value :  1.25044e-05
 Reference value :  1.25056e-05
 Reference value :  1.25067e-05
 Reference value :  1.25097e-05
 Reference value :  1.25117e-05
 Reference value :  1.25137e-05
 Reference value :  1.25155e-05
 Reference value :  1.25187e-05
 Reference value :  1.25232e-05
 Reference value :  1.25495e-05
 Reference value :  1.25753e-05
 Reference value :  1.26053e-05
 Reference value :  1.26803e-05
 Reference value :  1.27501e-05
 Reference value :  1.27502e-05
 Reference value :  1.27503e-05
 Reference value :  1.27509e-05
 Reference value :  1.27518e-05
 Reference value :  1.27537e-05
 Reference value :  1.27550e-05
 Reference value :  1.27577e-05
 Reference value :  1.27724e-05
 Reference value :  1.29025e-05
 Reference value :  1.30000e-05
 Reference value :  1.30001e-05
 Reference value :  1.30002e-05
 Reference value :  1.30008e-05
 Reference value :  1.30018e-05
 Reference value :  1.30026e-05
 Reference value :  1.30039e-05
 Reference value :  1.30055e-05
 Reference value :  1.30073e-05
 Reference value :  1.30090e-05
 Reference value :  1.30124e-05
 Reference value :  1.30475e-05
 Reference value :  1.32501e-05
 Reference value :  1.32502e-05
 Reference value :  1.32503e-05
 Reference value :  1.32509e-05
 Reference value :  1.32518e-05
 Reference value :  1.32538e-05
 Reference value :  1.32550e-05
 Reference value :  1.32576e-05
 Reference value :  1.32593e-05
 Reference value :  1.32683e-05
 Reference value :  1.33481e-05
 Reference value :  1.35000e-05
 Reference value :  1.35001e-05
 Reference value :  1.35003e-05
 Reference value :  1.35013e-05
 Reference value :  1.35022e-05
 Reference value :  1.35033e-05
 Reference value :  1.35044e-05
 Reference value :  1.35056e-05
 Reference value :  1.35067e-05
 Reference value :  1.35097e-05
 Reference value :  1.35117e-05
 Reference value :  1.35137e-05
 Reference value :  1.35165e-05
 Reference value :  1.35200e-05
 Reference value :  1.35345e-05
 Reference value :  1.35502e-05
 Reference value :  1.35743e-05
 Reference value :  1.36283e-05
 Reference value :  1.37501e-05
 Reference value :  1.37502e-05
 Reference value :  1.37503e-05
 Reference value :  1.37507e-05
 Reference value :  1.37514e-05
 Reference value :  1.37530e-05
 Reference value :  1.37544e-05
 Reference value :  1.37566e-05
 Reference value :  1.37655e-05
 Reference value :  1.38385e-05
 Reference value :  1.40000e-05
 Reference value :  1.40001e-05
 Reference value :  1.40003e-05
 Reference value :  1.40013e-05
 Reference value :  1.40022e-05
 Reference value :  1.40039e-05
 Reference value :  1.40055e-05
 Reference value :  1.40073e-05
 Reference value :  1.40090e-05
 Reference value :  1.40124e-05
 Reference value :  1.40475e-05
 Reference value :  1.42501e-05
 Reference value :  1.42502e-05
 Reference value :  1.42503e-05
 Reference value :  1.42509e-05
 Reference value :  1.42518e-05
 Reference value :  1.42538e-05
 Reference value :  1.42550e-05
 Reference value :  1.42576e-05
 Reference value :  1.42593e-05
 Reference value :  1.42683e-05
 Reference value :  1.43477e-05
 Reference value :  1.45000e-05
 Reference value :  1.45001e-05
 Reference value :  1.45003e-05
 Reference value :  1.45013e-05
 Reference value :  1.45022e-05
 Reference value :  1.45033e-05
 Reference value :  1.45044e-05
 Reference value :  1.45056e-05
 Reference value :  1.45067e-05
 Reference value :  1.45097e-05
 Reference value :  1.45117e-05
 Reference value :  1.45137e-05
 Reference value :  1.45165e-05
 Reference value :  1.45199e-05
 Reference value :  1.45308e-05
 Reference value :  1.45446e-05
 Reference value :  1.46461e-05
 Reference value :  1.47501e-05
 Reference value :  1.47502e-05
 Reference value :  1.47507e-05
 Reference value :  1.47514e-05
 Reference value :  1.47530e-05
 Reference value :  1.47544e-05
 Reference value :  1.47566e-05
 Reference value :  1.47615e-05
 Reference value :  1.48041e-05
 Reference value :  1.50000e-05
 Reference value :  1.50001e-05
 Reference value :  1.50002e-05
 Reference value :  1.50013e-05
 Reference value :  1.50022e-05
 Reference value :  1.50039e-05
 Reference value :  1.50055e-05
 Reference value :  1.50073e-05
 Reference value :  1.50090e-05
 Reference value :  1.50124e-05
 Reference value :  1.50475e-05
 Reference value :  1.52501e-05
 Reference value :  1.52502e-05
 Reference value :  1.52503e-05
 Reference value :  1.52509e-05
 Reference value :  1.52518e-05
 Reference value :  1.52538e-05
 Reference value :  1.52550e-05
 Reference value :  1.52576e-05
 Reference value :  1.52593e-05
 Reference value :  1.52683e-05
 Reference value :  1.53474e-05
 Reference value :  1.55013e-05
 Reference value :  1.55051e-05
 Reference value :  1.55074e-05
 Reference value :  1.55104e-05
 Reference value :  1.55123e-05
 Reference value :  1.55141e-05
 Reference value :  1.55166e-05
 Reference value :  1.55197e-05
 Reference value :  1.55258e-05
 Reference value :  1.55566e-05
 Reference value :  1.57501e-05
 Reference value :  1.57502e-05
 Reference value :  1.57503e-05
 Reference value :  1.57509e-05
 Reference value :  1.57519e-05
 Reference value :  1.57537e-05
 Reference value :  1.57550e-05
 Reference value :  1.57575e-05
 Reference value :  1.57720e-05
 Reference value :  1.58964e-05
 Reference value :  1.60001e-05
 Reference value :  1.60001e-05
 Reference value :  1.60003e-05
 Reference value :  1.60013e-05
 Reference value :  1.60022e-05
 Reference value :  1.60039e-05
 Reference value :  1.60055e-05
 Reference value :  1.60073e-05
 Reference value :  1.60090e-05
 Reference value :  1.60124e-05
 Reference value :  1.60471e-05
 Reference value :  1.62501e-05
 Reference value :  1.62502e-05
 Reference value :  1.62503e-05
 Reference value :  1.62509e-05
 Reference value :  1.62518e-05
 Reference value :  1.62538e-05
 Reference value :  1.62550e-05
 Reference value :  1.62576e-05
 Reference value :  1.62593e-05
 Reference value :  1.62648e-05
 Reference value :  1.63075e-05
 Reference value :  1.65000e-05
 Reference value :  1.65001e-05
 Reference value :  1.65002e-05
 Reference value :  1.65008e-05
 Reference value :  1.65018e-05
 Reference value :  1.65027e-05
 Reference value :  1.65039e-05
 Reference value :  1.65050e-05
 Reference value :  1.65061e-05
 Reference value :  1.65076e-05
 Reference value :  1.65100e-05
 Reference value :  1.65129e-05
 Reference value :  1.65168e-05
 Reference value :  1.65314e-05
 Reference value :  1.66473e-05
 Reference value :  1.67501e-05
 Reference value :  1.67502e-05
 Reference value :  1.67503e-05
 Reference value :  1.67510e-05
 Reference value :  1.67519e-05
 Reference value :  1.67539e-05
 Reference value :  1.67566e-05
 Reference value :  1.67649e-05
 Reference value :  1.68255e-05
 Reference value :  1.68554e-05
 Reference value :  1.68766e-05
 Reference value :  1.69661e-05
 Reference value :  1.70000e-05
 Reference value :  1.70000e-05
 Reference value :  1.70000e-05
 Reference value :  1.70001e-05
 Reference value :  1.70002e-05
 Reference value :  1.70008e-05
 Reference value :  1.70017e-05
 Reference value :  1.70033e-05
 Reference value :  1.70054e-05
 Reference value :  1.70068e-05
 Reference value :  1.70142e-05
 Reference value :  1.70275e-05
 Reference value :  1.70321e-05
 Reference value :  1.70398e-05
 Reference value :  1.70452e-05
 Reference value :  1.70498e-05
 Reference value :  1.70619e-05
 Reference value :  1.70877e-05
 Reference value :  1.72501e-05
 Reference value :  1.72502e-05
 Reference value :  1.72503e-05
 Reference value :  1.72507e-05
 Reference value :  1.72514e-05
 Reference value :  1.72530e-05
 Reference value :  1.72551e-05
 Reference value :  1.72578e-05
 Reference value :  1.72727e-05
 Reference value :  1.74000e-05
 Reference value :  1.75001e-05
 Reference value :  1.75002e-05
 Reference value :  1.75005e-05
 Reference value :  1.75013e-05
 Reference value :  1.75022e-05
 Reference value :  1.75039e-05
 Reference value :  1.75055e-05
 Reference value :  1.75078e-05
 Reference value :  1.75104e-05
 Reference value :  1.75135e-05
 Reference value :  1.75196e-05
 Reference value :  1.75405e-05
 Reference value :  1.77258e-05
 Reference value :  1.77502e-05
 Reference value :  1.77503e-05
 Reference value :  1.77507e-05
 Reference value :  1.77514e-05
 Reference value :  1.77530e-05
 Reference value :  1.77544e-05
 Reference value :  1.77567e-05
 Reference value :  1.77593e-05
 Reference value :  1.77672e-05
 Reference value :  1.78001e-05
 Reference value :  1.80000e-05
 Reference value :  1.80017e-05
 Reference value :  1.80070e-05
 Reference value :  1.80101e-05
 Reference value :  1.80124e-05
 Reference value :  1.80147e-05
 Reference value :  1.80169e-05
 Reference value :  1.80207e-05
 Reference value :  1.80420e-05
 Reference value :  1.82330e-05
 Reference value :  1.82502e-05
 Reference value :  1.82503e-05
 Reference value :  1.82507e-05
 Reference value :  1.82514e-05
 Reference value :  1.82524e-05
 Reference value :  1.82542e-05
 Reference value :  1.82564e-05
 Reference value :  1.82607e-05
 Reference value :  1.82998e-05
 Reference value :  1.85000e-05
 Reference value :  1.85001e-05
 Reference value :  1.85002e-05
 Reference value :  1.85008e-05
 Reference value :  1.85018e-05
 Reference value :  1.85026e-05
 Reference value :  1.85039e-05
 Reference value :  1.85056e-05
 Reference value :  1.85074e-05
 Reference value :  1.85090e-05
 Reference value :  1.85124e-05
 Reference value :  1.85459e-05
 Reference value :  1.87501e-05
 Reference value :  1.87502e-05
 Reference value :  1.87503e-05
 Reference value :  1.87509e-05
 Reference value :  1.87518e-05
 Reference value :  1.87538e-05
 Reference value :  1.87550e-05
 Reference value :  1.87576e-05
 Reference value :  1.87593e-05
 Reference value :  1.87683e-05
 Reference value :  1.88479e-05
 Reference value :  1.90000e-05
 Reference value :  1.90001e-05
 Reference value :  1.90003e-05
 Reference value :  1.90013e-05
 Reference value :  1.90022e-05
 Reference value :  1.90033e-05
 Reference value :  1.90044e-05
 Reference value :  1.90056e-05
 Reference value :  1.90067e-05
 Reference value :  1.90097e-05
 Reference value :  1.90117e-05
 Reference value :  1.90137e-05
 Reference value :  1.90155e-05
 Reference value :  1.90185e-05
 Reference value :  1.90231e-05
 Reference value :  1.90577e-05
 Reference value :  1.92501e-05
 Reference value :  1.92502e-05
 Reference value :  1.92503e-05
 Reference value :  1.92507e-05
 Reference value :  1.92514e-05
 Reference value :  1.92530e-05
 Reference value :  1.92544e-05
 Reference value :  1.92566e-05
 Reference value :  1.92653e-05
 Reference value :  1.93391e-05
 Reference value :  1.95018e-05
 Reference value :  1.95071e-05
 Reference value :  1.95103e-05
 Reference value :  1.95152e-05
 Reference value :  1.95388e-05
 Reference value :  1.97165e-05
 Reference value :  1.97502e-05
 Reference value :  1.97502e-05
 Reference value :  1.97507e-05
 Reference value :  1.97514e-05
 Reference value :  1.97530e-05
 Reference value :  1.97542e-05
 Reference value :  1.97563e-05
 Reference value :  1.97571e-05
 Reference value :  1.97581e-05
 Reference value :  1.97603e-05
 Reference value :  1.97620e-05
 Reference value :  1.97639e-05
 Reference value :  1.97672e-05
 Reference value :  1.97731e-05
 Reference value :  1.97818e-05
 Reference value :  1.98227e-05
 Reference value :  1.98649e-05
 Reference value :  2.00000e-05
 Reference value :  2.00000e-05
 Reference value :  2.00001e-05
 Reference value :  2.00001e-05
 Reference value :  2.00002e-05
 Reference value :  2.00003e-05
 Reference value :  2.00008e-05
 Reference value :  2.00018e-05
 Reference value :  2.00022e-05
 Reference value :  2.00033e-05
 Reference value :  2.00044e-05
 Reference value :  2.00056e-05
 Reference value :  2.00061e-05
 Reference value :  2.00076e-05
 Reference value :  2.00107e-05
 Reference value :  2.00129e-05
 Reference value :  2.00137e-05
 Reference value :  2.00155e-05
 Reference value :  2.00175e-05
 Reference value :  2.00196e-05
 Reference value :  2.00267e-05
 Reference value :  2.00812e-05
 Reference value :  2.01716e-05
 Reference value :  2.02501e-05
 Reference value :  2.02502e-05
 Reference value :  2.02503e-05
 Reference value :  2.02507e-05
 Reference value :  2.02514e-05
 Reference value :  2.02530e-05
 Reference value :  2.02544e-05
 Reference value :  2.02566e-05
 Reference value :  2.02614e-05
 Reference value :  2.03042e-05
 Reference value :  2.05018e-05
 Reference value :  2.05072e-05
 Reference value :  2.05104e-05
 Reference value :  2.05137e-05
 Reference value :  2.05296e-05
 Reference value :  2.06495e-05
 Reference value :  2.07501e-05
 Reference value :  2.07502e-05
 Reference value :  2.07504e-05
 Reference value :  2.07514e-05
 Reference value :  2.07524e-05
 Reference value :  2.07542e-05
 Reference value :  2.07562e-05
 Reference value :  2.07580e-05
 Reference value :  2.07619e-05
 Reference value :  2.07637e-05
 Reference value :  2.07822e-05
 Reference value :  2.09560e-05
 Reference value :  2.10001e-05
 Reference value :  2.10002e-05
 Reference value :  2.10005e-05
 Reference value :  2.10013e-05
 Reference value :  2.10022e-05
 Reference value :  2.10033e-05
 Reference value :  2.10044e-05
 Reference value :  2.10056e-05
 Reference value :  2.10067e-05
 Reference value :  2.10076e-05
 Reference value :  2.10097e-05
 Reference value :  2.10107e-05
 Reference value :  2.10129e-05
 Reference value :  2.10137e-05
 Reference value :  2.10145e-05
 Reference value :  2.10165e-05
 Reference value :  2.10175e-05
 Reference value :  2.10196e-05
 Reference value :  2.10213e-05
 Reference value :  2.10411e-05
 Reference value :  2.10576e-05
 Reference value :  2.10748e-05
 Reference value :  2.11244e-05
 Reference value :  2.12501e-05
 Reference value :  2.12501e-05
 Reference value :  2.12502e-05
 Reference value :  2.12502e-05
 Reference value :  2.12502e-05
 Reference value :  2.12503e-05
 Reference value :  2.12509e-05
 Reference value :  2.12514e-05
 Reference value :  2.12530e-05
 Reference value :  2.12544e-05
 Reference value :  2.12557e-05
 Reference value :  2.12591e-05
 Reference value :  2.12836e-05
 Reference value :  2.14042e-05
 Reference value :  2.15000e-05
 Reference value :  2.15000e-05
 Reference value :  2.15000e-05
 Reference value :  2.15001e-05
 Reference value :  2.15001e-05
 Reference value :  2.15002e-05
 Reference value :  2.15002e-05
 Reference value :  2.15005e-05
 Reference value :  2.15008e-05
 Reference value :  2.15013e-05
 Reference value :  2.15022e-05
 Reference value :  2.15033e-05
 Reference value :  2.15039e-05
 Reference value :  2.15047e-05
 Reference value :  2.15066e-05
 Reference value :  2.15073e-05
 Reference value :  2.15082e-05
 Reference value :  2.15090e-05
 Reference value :  2.15112e-05
 Reference value :  2.15195e-05
 Reference value :  2.15289e-05
 Reference value :  2.15851e-05
 Reference value :  2.17501e-05
 Reference value :  2.17501e-05
 Reference value :  2.17501e-05
 Reference value :  2.17502e-05
 Reference value :  2.17502e-05
 Reference value :  2.17502e-05
 Reference value :  2.17503e-05
 Reference value :  2.17504e-05
 Reference value :  2.17507e-05
 Reference value :  2.17509e-05
 Reference value :  2.17514e-05
 Reference value :  2.17524e-05
 Reference value :  2.17538e-05
 Reference value :  2.17544e-05
 Reference value :  2.17550e-05
 Reference value :  2.17558e-05
 Reference value :  2.17567e-05
 Reference value :  2.17576e-05
 Reference value :  2.17584e-05
 Reference value :  2.17593e-05
 Reference value :  2.17621e-05
 Reference value :  2.17649e-05
 Reference value :  2.17752e-05
 Reference value :  2.18075e-05
 Reference value :  2.20000e-05
 Reference value :  2.20013e-05
 Reference value :  2.20051e-05
 Reference value :  2.20073e-05
 Reference value :  2.20094e-05
 Reference value :  2.20103e-05
 Reference value :  2.20122e-05
 Reference value :  2.20140e-05
 Reference value :  2.20148e-05
 Reference value :  2.20166e-05
 Reference value :  2.20186e-05
 Reference value :  2.20215e-05
 Reference value :  2.20263e-05
 Reference value :  2.20391e-05
 Reference value :  2.20542e-05
 Reference value :  2.20624e-05
 Reference value :  2.20700e-05
 Reference value :  2.21209e-05
 Reference value :  2.21813e-05
 Reference value :  2.22501e-05
 Reference value :  2.22502e-05
 Reference value :  2.22503e-05
 Reference value :  2.22509e-05
 Reference value :  2.22514e-05
 Reference value :  2.22524e-05
 Reference value :  2.22537e-05
 Reference value :  2.22543e-05
 Reference value :  2.22556e-05
 Reference value :  2.22575e-05
 Reference value :  2.22590e-05
 Reference value :  2.22720e-05
 Reference value :  2.23378e-05
 Reference value :  2.25000e-05
 Reference value :  2.25000e-05
 Reference value :  2.25001e-05
 Reference value :  2.25002e-05
 Reference value :  2.25008e-05
 Reference value :  2.25013e-05
 Reference value :  2.25022e-05
 Reference value :  2.25039e-05
 Reference value :  2.25055e-05
 Reference value :  2.25066e-05
 Reference value :  2.25073e-05
 Reference value :  2.25082e-05
 Reference value :  2.25090e-05
 Reference value :  2.25112e-05
 Reference value :  2.25149e-05
 Reference value :  2.25289e-05
 Reference value :  2.26600e-05
 Reference value :  2.27501e-05
 Reference value :  2.27502e-05
 Reference value :  2.27503e-05
 Reference value :  2.27504e-05
 Reference value :  2.27507e-05
 Reference value :  2.27509e-05
 Reference value :  2.27514e-05
 Reference value :  2.27518e-05
 Reference value :  2.27524e-05
 Reference value :  2.27538e-05
 Reference value :  2.27550e-05
 Reference value :  2.27567e-05
 Reference value :  2.27584e-05
 Reference value :  2.27621e-05
 Reference value :  2.27752e-05
 Reference value :  2.28482e-05
 Reference value :  2.30000e-05
 Reference value :  2.30013e-05
 Reference value :  2.30038e-05
 Reference value :  2.30051e-05
 Reference value :  2.30072e-05
 Reference value :  2.30094e-05
 Reference value :  2.30103e-05
 Reference value :  2.30122e-05
 Reference value :  2.30140e-05
 Reference value :  2.30167e-05
 Reference value :  2.30189e-05
 Reference value :  2.30215e-05
 Reference value :  2.30298e-05
 Reference value :  2.30337e-05
 Reference value :  2.30424e-05
 Reference value :  2.30825e-05
 Reference value :  2.31732e-05
 Reference value :  2.32501e-05
 Reference value :  2.32502e-05
 Reference value :  2.32502e-05
 Reference value :  2.32504e-05
 Reference value :  2.32507e-05
 Reference value :  2.32514e-05
 Reference value :  2.32524e-05
 Reference value :  2.32537e-05
 Reference value :  2.32543e-05
 Reference value :  2.32550e-05
 Reference value :  2.32566e-05
 Reference value :  2.32613e-05
 Reference value :  2.33033e-05
 Reference value :  2.35000e-05
 Reference value :  2.35000e-05
 Reference value :  2.35001e-05
 Reference value :  2.35002e-05
 Reference value :  2.35003e-05
 Reference value :  2.35013e-05
 Reference value :  2.35022e-05
 Reference value :  2.35039e-05
 Reference value :  2.35055e-05
 Reference value :  2.35073e-05
 Reference value :  2.35090e-05
 Reference value :  2.35112e-05
 Reference value :  2.35196e-05
 Reference value :  2.36586e-05
 Reference value :  2.37501e-05
 Reference value :  2.37502e-05
 Reference value :  2.37502e-05
 Reference value :  2.37503e-05
 Reference value :  2.37504e-05
 Reference value :  2.37509e-05
 Reference value :  2.37518e-05
 Reference value :  2.37530e-05
 Reference value :  2.37544e-05
 Reference value :  2.37567e-05
 Reference value :  2.37584e-05
 Reference value :  2.37621e-05
 Reference value :  2.37873e-05
 Reference value :  2.40000e-05
 Reference value :  2.40001e-05
 Reference value :  2.40001e-05
 Reference value :  2.40002e-05
 Reference value :  2.40008e-05
 Reference value :  2.40018e-05
 Reference value :  2.40027e-05
 Reference value :  2.40039e-05
 Reference value :  2.40050e-05
 Reference value :  2.40056e-05
 Reference value :  2.40067e-05
 Reference value :  2.40097e-05
 Reference value :  2.40118e-05
 Reference value :  2.40137e-05
 Reference value :  2.40165e-05
 Reference value :  2.40200e-05
 Reference value :  2.40270e-05
 Reference value :  2.40674e-05
 Reference value :  2.42501e-05
 Reference value :  2.42501e-05
 Reference value :  2.42502e-05
 Reference value :  2.42504e-05
 Reference value :  2.42509e-05
 Reference value :  2.42518e-05
 Reference value :  2.42537e-05
 Reference value :  2.42544e-05
 Reference value :  2.42557e-05
 Reference value :  2.42591e-05
 Reference value :  2.42723e-05
 Reference value :  2.43390e-05
 Reference value :  2.45000e-05
 Reference value :  2.45000e-05
 Reference value :  2.45001e-05
 Reference value :  2.45002e-05
 Reference value :  2.45008e-05
 Reference value :  2.45013e-05
 Reference value :  2.45022e-05
 Reference value :  2.45039e-05
 Reference value :  2.45055e-05
 Reference value :  2.45073e-05
 Reference value :  2.45090e-05
 Reference value :  2.45124e-05
 Reference value :  2.45477e-05
 Reference value :  2.47501e-05
 Reference value :  2.47502e-05
 Reference value :  2.47503e-05
 Reference value :  2.47509e-05
 Reference value :  2.47518e-05
 Reference value :  2.47538e-05
 Reference value :  2.47550e-05
 Reference value :  2.47567e-05
 Reference value :  2.47584e-05
 Reference value :  2.47621e-05
 Reference value :  2.47871e-05
 Reference value :  2.50000e-05
 Reference value :  2.50001e-05
 Reference value :  2.50001e-05
 Reference value :  2.50003e-05
 Reference value :  2.50013e-05
 Reference value :  2.50022e-05
 Reference value :  2.50033e-05
 Reference value :  2.50044e-05
 Reference value :  2.50056e-05
 Reference value :  2.50067e-05
 Reference value :  2.50084e-05
 Reference value :  2.50100e-05
 Reference value :  2.50118e-05
 Reference value :  2.50158e-05
 Reference value :  2.50200e-05
 Reference value :  2.50421e-05
 Reference value :  2.50923e-05
 Reference value :  2.52128e-05
 Reference value :  2.52501e-05
 Reference value :  2.52502e-05
 Reference value :  2.52502e-05
 Reference value :  2.52504e-05
 Reference value :  2.52514e-05
 Reference value :  2.52524e-05
 Reference value :  2.52539e-05
 Reference value :  2.52566e-05
 Reference value :  2.52618e-05
 Reference value :  2.52964e-05
 Reference value :  2.53868e-05
 Reference value :  2.55000e-05
 Reference value :  2.55000e-05
 Reference value :  2.55000e-05
 Reference value :  2.55000e-05
 Reference value :  2.55001e-05
 Reference value :  2.55002e-05
 Reference value :  2.55008e-05
 Reference value :  2.55017e-05
 Reference value :  2.55027e-05
 Reference value :  2.55047e-05
 Reference value :  2.55054e-05
 Reference value :  2.55068e-05
 Reference value :  2.55142e-05
 Reference value :  2.55275e-05
 Reference value :  2.55321e-05
 Reference value :  2.55403e-05
 Reference value :  2.55441e-05
 Reference value :  2.55464e-05
 Reference value :  2.55491e-05
 Reference value :  2.55540e-05
 Reference value :  2.55595e-05
 Reference value :  2.55712e-05
 Reference value :  2.56048e-05
 Reference value :  2.57501e-05
 Reference value :  2.57502e-05
 Reference value :  2.57503e-05
 Reference value :  2.57507e-05
 Reference value :  2.57514e-05
 Reference value :  2.57530e-05
 Reference value :  2.57551e-05
 Reference value :  2.57578e-05
 Reference value :  2.57727e-05
 Reference value :  2.58999e-05
 Reference value :  2.60000e-05
 Reference value :  2.60001e-05
 Reference value :  2.60002e-05
 Reference value :  2.60008e-05
 Reference value :  2.60018e-05
 Reference value :  2.60026e-05
 Reference value :  2.60048e-05
 Reference value :  2.60080e-05
 Reference value :  2.60121e-05
 Reference value :  2.60151e-05
 Reference value :  2.60212e-05
 Reference value :  2.60527e-05
 Reference value :  2.62501e-05
 Reference value :  2.62502e-05
 Reference value :  2.62503e-05
 Reference value :  2.62507e-05
 Reference value :  2.62514e-05
 Reference value :  2.62530e-05
 Reference value :  2.62544e-05
 Reference value :  2.62567e-05
 Reference value :  2.62593e-05
 Reference value :  2.62620e-05
 Reference value :  2.62672e-05
 Reference value :  2.62777e-05
 Reference value :  2.62999e-05
 Reference value :  2.63497e-05
 Reference value :  2.65000e-05
 Reference value :  2.65018e-05
 Reference value :  2.65071e-05
 Reference value :  2.65102e-05
 Reference value :  2.65113e-05
 Reference value :  2.65137e-05
 Reference value :  2.65159e-05
 Reference value :  2.65181e-05
 Reference value :  2.65227e-05
 Reference value :  2.65578e-05
 Reference value :  2.67014e-05
 Reference value :  2.67501e-05
 Reference value :  2.67502e-05
 Reference value :  2.67504e-05
 Reference value :  2.67514e-05
 Reference value :  2.67524e-05
 Reference value :  2.67542e-05
 Reference value :  2.67563e-05
 Reference value :  2.67606e-05
 Reference value :  2.67800e-05
 Reference value :  2.70000e-05
 Reference value :  2.70001e-05
 Reference value :  2.70001e-05
 Reference value :  2.70003e-05
 Reference value :  2.70013e-05
 Reference value :  2.70022e-05
 Reference value :  2.70039e-05
 Reference value :  2.70056e-05
 Reference value :  2.70074e-05
 Reference value :  2.70090e-05
 Reference value :  2.70124e-05
 Reference value :  2.70285e-05
 Reference value :  2.71547e-05
 Reference value :  2.72501e-05
 Reference value :  2.72502e-05
 Reference value :  2.72503e-05
 Reference value :  2.72507e-05
 Reference value :  2.72514e-05
 Reference value :  2.72530e-05
 Reference value :  2.72538e-05
 Reference value :  2.72550e-05
 Reference value :  2.72567e-05
 Reference value :  2.72584e-05
 Reference value :  2.72607e-05
 Reference value :  2.72752e-05
 Reference value :  2.73482e-05
 Reference value :  2.75000e-05
 Reference value :  2.75000e-05
 Reference value :  2.75001e-05
 Reference value :  2.75002e-05
 Reference value :  2.75008e-05
 Reference value :  2.75018e-05
 Reference value :  2.75027e-05
 Reference value :  2.75039e-05
 Reference value :  2.75044e-05
 Reference value :  2.75056e-05
 Reference value :  2.75067e-05
 Reference value :  2.75097e-05
 Reference value :  2.75107e-05
 Reference value :  2.75128e-05
 Reference value :  2.75145e-05
 Reference value :  2.75165e-05
 Reference value :  2.75185e-05
 Reference value :  2.75231e-05
 Reference value :  2.75577e-05
 Reference value :  2.76860e-05
 Reference value :  2.77501e-05
 Reference value :  2.77502e-05
 Reference value :  2.77503e-05
 Reference value :  2.77509e-05
 Reference value :  2.77518e-05
 Reference value :  2.77538e-05
 Reference value :  2.77550e-05
 Reference value :  2.77576e-05
 Reference value :  2.77723e-05
 Reference value :  2.78391e-05
 Reference value :  2.80018e-05
 Reference value :  2.80071e-05
 Reference value :  2.80103e-05
 Reference value :  2.80134e-05
 Reference value :  2.80284e-05
 Reference value :  2.81327e-05
 Reference value :  2.82501e-05
 Reference value :  2.82502e-05
 Reference value :  2.82503e-05
 Reference value :  2.82509e-05
 Reference value :  2.82519e-05
 Reference value :  2.82530e-05
 Reference value :  2.82542e-05
 Reference value :  2.82563e-05
 Reference value :  2.82581e-05
 Reference value :  2.82620e-05
 Reference value :  2.82818e-05
 Reference value :  2.83649e-05
 Reference value :  2.85000e-05
 Reference value :  2.85001e-05
 Reference value :  2.85002e-05
 Reference value :  2.85005e-05
 Reference value :  2.85013e-05
 Reference value :  2.85022e-05
 Reference value :  2.85033e-05
 Reference value :  2.85044e-05
 Reference value :  2.85056e-05
 Reference value :  2.85067e-05
 Reference value :  2.85097e-05
 Reference value :  2.85118e-05
 Reference value :  2.85137e-05
 Reference value :  2.85155e-05
 Reference value :  2.85185e-05
 Reference value :  2.85213e-05
 Reference value :  2.85412e-05
 Reference value :  2.86105e-05
 Reference value :  2.86716e-05
 Reference value :  2.87501e-05
 Reference value :  2.87502e-05
 Reference value :  2.87503e-05
 Reference value :  2.87509e-05
 Reference value :  2.87518e-05
 Reference value :  2.87538e-05
 Reference value :  2.87550e-05
 Reference value :  2.87576e-05
 Reference value :  2.87723e-05
 Reference value :  2.89043e-05
 Reference value :  2.90018e-05
 Reference value :  2.90072e-05
 Reference value :  2.90104e-05
 Reference value :  2.90137e-05
 Reference value :  2.90296e-05
 Reference value :  2.90939e-05
 Reference value :  2.92501e-05
 Reference value :  2.92502e-05
 Reference value :  2.92504e-05
 Reference value :  2.92514e-05
 Reference value :  2.92524e-05
 Reference value :  2.92542e-05
 Reference value :  2.92555e-05
 Reference value :  2.92571e-05
 Reference value :  2.92602e-05
 Reference value :  2.92637e-05
 Reference value :  2.92822e-05
 Reference value :  2.93268e-05
 Reference value :  2.95000e-05
 Reference value :  2.95001e-05
 Reference value :  2.95001e-05
 Reference value :  2.95002e-05
 Reference value :  2.95005e-05
 Reference value :  2.95013e-05
 Reference value :  2.95022e-05
 Reference value :  2.95033e-05
 Reference value :  2.95044e-05
 Reference value :  2.95056e-05
 Reference value :  2.95067e-05
 Reference value :  2.95097e-05
 Reference value :  2.95118e-05
 Reference value :  2.95137e-05
 Reference value :  2.95155e-05
 Reference value :  2.95185e-05
 Reference value :  2.95212e-05
 Reference value :  2.95405e-05
 Reference value :  2.95569e-05
 Reference value :  2.95741e-05
 Reference value :  2.95919e-05
 Reference value :  2.96429e-05
 Reference value :  2.97501e-05
 Reference value :  2.97502e-05
 Reference value :  2.97502e-05
 Reference value :  2.97507e-05
 Reference value :  2.97514e-05
 Reference value :  2.97530e-05
 Reference value :  2.97544e-05
 Reference value :  2.97566e-05
 Reference value :  2.97614e-05
 Reference value :  2.98042e-05
 Reference value :  3.00000e-05
 Reference value :  3.00001e-05
 Reference value :  3.00002e-05
 Reference value :  3.00005e-05
 Reference value :  3.00013e-05
 Reference value :  3.00022e-05
 Reference value :  3.00039e-05
 Reference value :  3.00055e-05
 Reference value :  3.00073e-05
 Reference value :  3.00090e-05
 Reference value :  3.00112e-05
 Reference value :  3.00149e-05
 Reference value :  3.00851e-05
 Reference value :  3.02501e-05
 Reference value :  3.02502e-05
 Reference value :  3.02503e-05
 Reference value :  3.02507e-05
 Reference value :  3.02514e-05
 Reference value :  3.02524e-05
 Reference value :  3.02530e-05
 Reference value :  3.02538e-05
 Reference value :  3.02544e-05
 Reference value :  3.02558e-05
 Reference value :  3.02576e-05
 Reference value :  3.02593e-05
 Reference value :  3.02649e-05
 Reference value :  3.03075e-05
 Reference value :  3.05013e-05
 Reference value :  3.05038e-05
 Reference value :  3.05051e-05
 Reference value :  3.05073e-05
 Reference value :  3.05103e-05
 Reference value :  3.05122e-05
 Reference value :  3.05140e-05
 Reference value :  3.05157e-05
 Reference value :  3.05186e-05
 Reference value :  3.05231e-05
 Reference value :  3.05389e-05
 Reference value :  3.05622e-05
 Reference value :  3.06240e-05
 Reference value :  3.06873e-05
 Reference value :  3.07501e-05
 Reference value :  3.07502e-05
 Reference value :  3.07503e-05
 Reference value :  3.07507e-05
 Reference value :  3.07514e-05
 Reference value :  3.07524e-05
 Reference value :  3.07543e-05
 Reference value :  3.07566e-05
 Reference value :  3.07613e-05
 Reference value :  3.07650e-05
 Reference value :  3.08378e-05
 Reference value :  3.10000e-05
 Reference value :  3.10001e-05
 Reference value :  3.10001e-05
 Reference value :  3.10003e-05
 Reference value :  3.10013e-05
 Reference value :  3.10022e-05
 Reference value :  3.10033e-05
 Reference value :  3.10047e-05
 Reference value :  3.10055e-05
 Reference value :  3.10073e-05
 Reference value :  3.10090e-05
 Reference value :  3.10124e-05
 Reference value :  3.10476e-05
 Reference value :  3.12501e-05
 Reference value :  3.12502e-05
 Reference value :  3.12503e-05
 Reference value :  3.12509e-05
 Reference value :  3.12514e-05
 Reference value :  3.12524e-05
 Reference value :  3.12538e-05
 Reference value :  3.12550e-05
 Reference value :  3.12558e-05
 Reference value :  3.12567e-05
 Reference value :  3.12584e-05
 Reference value :  3.12607e-05
 Reference value :  3.12683e-05
 Reference value :  3.13482e-05
 Reference value :  3.15000e-05
 Reference value :  3.15001e-05
 Reference value :  3.15001e-05
 Reference value :  3.15002e-05
 Reference value :  3.15005e-05
 Reference value :  3.15013e-05
 Reference value :  3.15022e-05
 Reference value :  3.15033e-05
 Reference value :  3.15044e-05
 Reference value :  3.15056e-05
 Reference value :  3.15067e-05
 Reference value :  3.15084e-05
 Reference value :  3.15107e-05
 Reference value :  3.15129e-05
 Reference value :  3.15145e-05
 Reference value :  3.15165e-05
 Reference value :  3.15188e-05
 Reference value :  3.15239e-05
 Reference value :  3.15349e-05
 Reference value :  3.15674e-05
 Reference value :  3.17501e-05
 Reference value :  3.17502e-05
 Reference value :  3.17502e-05
 Reference value :  3.17503e-05
 Reference value :  3.17509e-05
 Reference value :  3.17518e-05
 Reference value :  3.17530e-05
 Reference value :  3.17544e-05
 Reference value :  3.17566e-05
 Reference value :  3.17614e-05
 Reference value :  3.17836e-05
 Reference value :  3.20000e-05
 Reference value :  3.20001e-05
 Reference value :  3.20002e-05
 Reference value :  3.20005e-05
 Reference value :  3.20013e-05
 Reference value :  3.20022e-05
 Reference value :  3.20039e-05
 Reference value :  3.20055e-05
 Reference value :  3.20073e-05
 Reference value :  3.20090e-05
 Reference value :  3.20112e-05
 Reference value :  3.20289e-05
 Reference value :  3.21601e-05
 Reference value :  3.22501e-05
 Reference value :  3.22502e-05
 Reference value :  3.22503e-05
 Reference value :  3.22509e-05
 Reference value :  3.22518e-05
 Reference value :  3.22538e-05
 Reference value :  3.22544e-05
 Reference value :  3.22558e-05
 Reference value :  3.22567e-05
 Reference value :  3.22584e-05
 Reference value :  3.22621e-05
 Reference value :  3.22872e-05
 Reference value :  3.25000e-05
 Reference value :  3.25000e-05
 Reference value :  3.25001e-05
 Reference value :  3.25002e-05
 Reference value :  3.25005e-05
 Reference value :  3.25013e-05
 Reference value :  3.25022e-05
 Reference value :  3.25033e-05
 Reference value :  3.25039e-05
 Reference value :  3.25044e-05
 Reference value :  3.25056e-05
 Reference value :  3.25067e-05
 Reference value :  3.25097e-05
 Reference value :  3.25107e-05
 Reference value :  3.25129e-05
 Reference value :  3.25145e-05
 Reference value :  3.25176e-05
 Reference value :  3.25220e-05
 Reference value :  3.25368e-05
 Reference value :  3.26577e-05
 Reference value :  3.27501e-05
 Reference value :  3.27502e-05
 Reference value :  3.27503e-05
 Reference value :  3.27507e-05
 Reference value :  3.27514e-05
 Reference value :  3.27524e-05
 Reference value :  3.27544e-05
 Reference value :  3.27557e-05
 Reference value :  3.27591e-05
 Reference value :  3.27836e-05
 Reference value :  3.30000e-05
 Reference value :  3.30001e-05
 Reference value :  3.30001e-05
 Reference value :  3.30003e-05
 Reference value :  3.30013e-05
 Reference value :  3.30022e-05
 Reference value :  3.30039e-05
 Reference value :  3.30055e-05
 Reference value :  3.30073e-05
 Reference value :  3.30090e-05
 Reference value :  3.30124e-05
 Reference value :  3.30477e-05
 Reference value :  3.32501e-05
 Reference value :  3.32502e-05
 Reference value :  3.32503e-05
 Reference value :  3.32507e-05
 Reference value :  3.32514e-05
 Reference value :  3.32523e-05
 Reference value :  3.32538e-05
 Reference value :  3.32550e-05
 Reference value :  3.32567e-05
 Reference value :  3.32584e-05
 Reference value :  3.32621e-05
 Reference value :  3.32871e-05
 Reference value :  3.35000e-05
 Reference value :  3.35014e-05
 Reference value :  3.35056e-05
 Reference value :  3.35082e-05
 Reference value :  3.35115e-05
 Reference value :  3.35140e-05
 Reference value :  3.35159e-05
 Reference value :  3.35238e-05
 Reference value :  3.35565e-05
 Reference value :  3.36316e-05
 Reference value :  3.36907e-05
 Reference value :  3.37501e-05
 Reference value :  3.37502e-05
 Reference value :  3.37503e-05
 Reference value :  3.37507e-05
 Reference value :  3.37514e-05
 Reference value :  3.37530e-05
 Reference value :  3.37556e-05
 Reference value :  3.37593e-05
 Reference value :  3.37804e-05
 Reference value :  3.39831e-05
 Reference value :  3.40000e-05
 Reference value :  3.40000e-05
 Reference value :  3.40000e-05
 Reference value :  3.40001e-05
 Reference value :  3.40001e-05
 Reference value :  3.40003e-05
 Reference value :  3.40012e-05
 Reference value :  3.40022e-05
 Reference value :  3.40040e-05
 Reference value :  3.40054e-05
 Reference value :  3.40068e-05
 Reference value :  3.40142e-05
 Reference value :  3.40275e-05
 Reference value :  3.40321e-05
 Reference value :  3.40413e-05
 Reference value :  3.40487e-05
 Reference value :  3.40549e-05
 Reference value :  3.40616e-05
 Reference value :  3.40708e-05
 Reference value :  3.40876e-05
 Reference value :  3.41983e-05
 Reference value :  3.42501e-05
 Reference value :  3.42502e-05
 Reference value :  3.42504e-05
 Reference value :  3.42514e-05
 Reference value :  3.42530e-05
 Reference value :  3.42544e-05
 Reference value :  3.42567e-05
 Reference value :  3.42618e-05
 Reference value :  3.43043e-05
 Reference value :  3.45000e-05
 Reference value :  3.45001e-05
 Reference value :  3.45002e-05
 Reference value :  3.45005e-05
 Reference value :  3.45013e-05
 Reference value :  3.45022e-05
 Reference value :  3.45039e-05
 Reference value :  3.45067e-05
 Reference value :  3.45080e-05
 Reference value :  3.45121e-05
 Reference value :  3.45151e-05
 Reference value :  3.45171e-05
 Reference value :  3.45212e-05
 Reference value :  3.45382e-05
 Reference value :  3.46185e-05
 Reference value :  3.47501e-05
 Reference value :  3.47502e-05
 Reference value :  3.47503e-05
 Reference value :  3.47507e-05
 Reference value :  3.47514e-05
 Reference value :  3.47530e-05
 Reference value :  3.47544e-05
 Reference value :  3.47558e-05
 Reference value :  3.47576e-05
 Reference value :  3.47604e-05
 Reference value :  3.47641e-05
 Reference value :  3.47777e-05
 Reference value :  3.48192e-05
 Reference value :  3.50000e-05
 Reference value :  3.50000e-05
 Reference value :  3.50001e-05
 Reference value :  3.50002e-05
 Reference value :  3.50013e-05
 Reference value :  3.50022e-05
 Reference value :  3.50033e-05
 Reference value :  3.50044e-05
 Reference value :  3.50056e-05
 Reference value :  3.50061e-05
 Reference value :  3.50084e-05
 Reference value :  3.50107e-05
 Reference value :  3.50117e-05
 Reference value :  3.50137e-05
 Reference value :  3.50155e-05
 Reference value :  3.50186e-05
 Reference value :  3.50232e-05
 Reference value :  3.50415e-05
 Reference value :  3.51385e-05
 Reference value :  3.52501e-05
 Reference value :  3.52502e-05
 Reference value :  3.52502e-05
 Reference value :  3.52504e-05
 Reference value :  3.52514e-05
 Reference value :  3.52530e-05
 Reference value :  3.52544e-05
 Reference value :  3.52566e-05
 Reference value :  3.52614e-05
 Reference value :  3.52836e-05
 Reference value :  3.55000e-05
 Reference value :  3.55001e-05
 Reference value :  3.55001e-05
 Reference value :  3.55003e-05
 Reference value :  3.55013e-05
 Reference value :  3.55022e-05
 Reference value :  3.55039e-05
 Reference value :  3.55055e-05
 Reference value :  3.55073e-05
 Reference value :  3.55090e-05
 Reference value :  3.55124e-05
 Reference value :  3.55476e-05
 Reference value :  3.57501e-05
 Reference value :  3.57502e-05
 Reference value :  3.57503e-05
 Reference value :  3.57507e-05
 Reference value :  3.57514e-05
 Reference value :  3.57530e-05
 Reference value :  3.57544e-05
 Reference value :  3.57567e-05
 Reference value :  3.57584e-05
 Reference value :  3.57621e-05
 Reference value :  3.57874e-05
 Reference value :  3.60000e-05
 Reference value :  3.60013e-05
 Reference value :  3.60052e-05
 Reference value :  3.60075e-05
 Reference value :  3.60096e-05
 Reference value :  3.60105e-05
 Reference value :  3.60125e-05
 Reference value :  3.60136e-05
 Reference value :  3.60144e-05
 Reference value :  3.60151e-05
 Reference value :  3.60171e-05
 Reference value :  3.60194e-05
 Reference value :  3.60312e-05
 Reference value :  3.61239e-05
 Reference value :  3.62501e-05
 Reference value :  3.62502e-05
 Reference value :  3.62503e-05
 Reference value :  3.62509e-05
 Reference value :  3.62519e-05
 Reference value :  3.62537e-05
 Reference value :  3.62543e-05
 Reference value :  3.62566e-05
 Reference value :  3.62613e-05
 Reference value :  3.62831e-05
 Reference value :  3.65000e-05
 Reference value :  3.65001e-05
 Reference value :  3.65001e-05
 Reference value :  3.65003e-05
 Reference value :  3.65013e-05
 Reference value :  3.65022e-05
 Reference value :  3.65039e-05
 Reference value :  3.65055e-05
 Reference value :  3.65074e-05
 Reference value :  3.65090e-05
 Reference value :  3.65124e-05
 Reference value :  3.65471e-05
 Reference value :  3.67501e-05
 Reference value :  3.67502e-05
 Reference value :  3.67503e-05
 Reference value :  3.67507e-05
 Reference value :  3.67514e-05
 Reference value :  3.67530e-05
 Reference value :  3.67544e-05
 Reference value :  3.67567e-05
 Reference value :  3.67584e-05
 Reference value :  3.67621e-05
 Reference value :  3.67874e-05
 Reference value :  3.70000e-05
 Reference value :  3.70001e-05
 Reference value :  3.70001e-05
 Reference value :  3.70002e-05
 Reference value :  3.70005e-05
 Reference value :  3.70013e-05
 Reference value :  3.70022e-05
 Reference value :  3.70033e-05
 Reference value :  3.70044e-05
 Reference value :  3.70056e-05
 Reference value :  3.70067e-05
 Reference value :  3.70097e-05
 Reference value :  3.70107e-05
 Reference value :  3.70128e-05
 Reference value :  3.70145e-05
 Reference value :  3.70165e-05
 Reference value :  3.70185e-05
 Reference value :  3.70213e-05
 Reference value :  3.70412e-05
 Reference value :  3.71105e-05
 Reference value :  3.72008e-05
 Reference value :  3.72501e-05
 Reference value :  3.72502e-05
 Reference value :  3.72504e-05
 Reference value :  3.72507e-05
 Reference value :  3.72514e-05
 Reference value :  3.72530e-05
 Reference value :  3.72544e-05
 Reference value :  3.72566e-05
 Reference value :  3.72614e-05
 Reference value :  3.73042e-05
 Reference value :  3.75000e-05
 Reference value :  3.75001e-05
 Reference value :  3.75002e-05
 Reference value :  3.75003e-05
 Reference value :  3.75013e-05
 Reference value :  3.75022e-05
 Reference value :  3.75039e-05
 Reference value :  3.75055e-05
 Reference value :  3.75073e-05
 Reference value :  3.75090e-05
 Reference value :  3.75124e-05
 Reference value :  3.75477e-05
 Reference value :  3.77501e-05
 Reference value :  3.77502e-05
 Reference value :  3.77503e-05
 Reference value :  3.77509e-05
 Reference value :  3.77518e-05
 Reference value :  3.77538e-05
 Reference value :  3.77550e-05
 Reference value :  3.77567e-05
 Reference value :  3.77584e-05
 Reference value :  3.77621e-05
 Reference value :  3.77752e-05
 Reference value :  3.79245e-05
 Reference value :  3.80001e-05
 Reference value :  3.80001e-05
 Reference value :  3.80003e-05
 Reference value :  3.80013e-05
 Reference value :  3.80022e-05
 Reference value :  3.80033e-05
 Reference value :  3.80044e-05
 Reference value :  3.80056e-05
 Reference value :  3.80067e-05
 Reference value :  3.80097e-05
 Reference value :  3.80117e-05
 Reference value :  3.80137e-05
 Reference value :  3.80155e-05
 Reference value :  3.80174e-05
 Reference value :  3.80196e-05
 Reference value :  3.80265e-05
 Reference value :  3.80318e-05
 Reference value :  3.80569e-05
 Reference value :  3.80740e-05
 Reference value :  3.81003e-05
 Reference value :  3.82007e-05
 Reference value :  3.82501e-05
 Reference value :  3.82502e-05
 Reference value :  3.82504e-05
 Reference value :  3.82514e-05
 Reference value :  3.82530e-05
 Reference value :  3.82544e-05
 Reference value :  3.82566e-05
 Reference value :  3.82614e-05
 Reference value :  3.83042e-05
 Reference value :  3.85018e-05
 Reference value :  3.85072e-05
 Reference value :  3.85105e-05
 Reference value :  3.85137e-05
 Reference value :  3.85296e-05
 Reference value :  3.86501e-05
 Reference value :  3.87502e-05
 Reference value :  3.87502e-05
 Reference value :  3.87503e-05
 Reference value :  3.87509e-05
 Reference value :  3.87519e-05
 Reference value :  3.87530e-05
 Reference value :  3.87542e-05
 Reference value :  3.87562e-05
 Reference value :  3.87580e-05
 Reference value :  3.87619e-05
 Reference value :  3.87823e-05
 Reference value :  3.89574e-05
 Reference value :  3.90000e-05
 Reference value :  3.90001e-05
 Reference value :  3.90002e-05
 Reference value :  3.90008e-05
 Reference value :  3.90018e-05
 Reference value :  3.90027e-05
 Reference value :  3.90039e-05
 Reference value :  3.90050e-05
 Reference value :  3.90056e-05
 Reference value :  3.90067e-05
 Reference value :  3.90097e-05
 Reference value :  3.90118e-05
 Reference value :  3.90137e-05
 Reference value :  3.90156e-05
 Reference value :  3.90176e-05
 Reference value :  3.90220e-05
 Reference value :  3.90421e-05
 Reference value :  3.90572e-05
 Reference value :  3.91123e-05
 Reference value :  3.91776e-05
 Reference value :  3.92501e-05
 Reference value :  3.92502e-05
 Reference value :  3.92504e-05
 Reference value :  3.92514e-05
 Reference value :  3.92530e-05
 Reference value :  3.92544e-05
 Reference value :  3.92566e-05
 Reference value :  3.92614e-05
 Reference value :  3.93042e-05
 Reference value :  3.95000e-05
 Reference value :  3.95001e-05
 Reference value :  3.95002e-05
 Reference value :  3.95005e-05
 Reference value :  3.95013e-05
 Reference value :  3.95022e-05
 Reference value :  3.95039e-05
 Reference value :  3.95055e-05
 Reference value :  3.95073e-05
 Reference value :  3.95090e-05
 Reference value :  3.95124e-05
 Reference value :  3.95477e-05
 Reference value :  3.97501e-05
 Reference value :  3.97502e-05
 Reference value :  3.97502e-05
 Reference value :  3.97504e-05
 Reference value :  3.97514e-05
 Reference value :  3.97530e-05
 Reference value :  3.97544e-05
 Reference value :  3.97567e-05
 Reference value :  3.97584e-05
 Reference value :  3.97621e-05
 Reference value :  3.97873e-05
 Reference value :  4.00000e-05
 Reference value :  4.00001e-05
 Reference value :  4.00002e-05
 Reference value :  4.00005e-05
 Reference value :  4.00013e-05
 Reference value :  4.00022e-05
 Reference value :  4.00033e-05
 Reference value :  4.00044e-05
 Reference value :  4.00056e-05
 Reference value :  4.00067e-05
 Reference value :  4.00084e-05
 Reference value :  4.00107e-05
 Reference value :  4.00129e-05
 Reference value :  4.00145e-05
 Reference value :  4.00176e-05
 Reference value :  4.00220e-05
 Reference value :  4.00308e-05
 Reference value :  4.00522e-05
 Reference value :  4.02025e-05
 Reference value :  4.02501e-05
 Reference value :  4.02502e-05
 Reference value :  4.02504e-05
 Reference value :  4.02514e-05
 Reference value :  4.02530e-05
 Reference value :  4.02544e-05
 Reference value :  4.02566e-05
 Reference value :  4.02614e-05
 Reference value :  4.03042e-05
 Reference value :  4.05000e-05
 Reference value :  4.05001e-05
 Reference value :  4.05002e-05
 Reference value :  4.05005e-05
 Reference value :  4.05013e-05
 Reference value :  4.05018e-05
 Reference value :  4.05026e-05
 Reference value :  4.05039e-05
 Reference value :  4.05055e-05
 Reference value :  4.05073e-05
 Reference value :  4.05090e-05
 Reference value :  4.05124e-05
 Reference value :  4.05477e-05
 Reference value :  4.07501e-05
 Reference value :  4.07502e-05
 Reference value :  4.07502e-05
 Reference value :  4.07504e-05
 Reference value :  4.07509e-05
 Reference value :  4.07514e-05
 Reference value :  4.07524e-05
 Reference value :  4.07538e-05
 Reference value :  4.07550e-05
 Reference value :  4.07576e-05
 Reference value :  4.07593e-05
 Reference value :  4.07648e-05
 Reference value :  4.08072e-05
 Reference value :  4.10013e-05
 Reference value :  4.10051e-05
 Reference value :  4.10074e-05
 Reference value :  4.10084e-05
 Reference value :  4.10104e-05
 Reference value :  4.10123e-05
 Reference value :  4.10141e-05
 Reference value :  4.10157e-05
 Reference value :  4.10187e-05
 Reference value :  4.10213e-05
 Reference value :  4.10336e-05
 Reference value :  4.11132e-05
 Reference value :  4.12501e-05
 Reference value :  4.12502e-05
 Reference value :  4.12503e-05
 Reference value :  4.12509e-05
 Reference value :  4.12519e-05
 Reference value :  4.12530e-05
 Reference value :  4.12543e-05
 Reference value :  4.12566e-05
 Reference value :  4.12613e-05
 Reference value :  4.13034e-05
 Reference value :  4.15000e-05
 Reference value :  4.15001e-05
 Reference value :  4.15002e-05
 Reference value :  4.15005e-05
 Reference value :  4.15013e-05
 Reference value :  4.15022e-05
 Reference value :  4.15039e-05
 Reference value :  4.15055e-05
 Reference value :  4.15073e-05
 Reference value :  4.15090e-05
 Reference value :  4.15124e-05
 Reference value :  4.15468e-05
 Reference value :  4.17501e-05
 Reference value :  4.17502e-05
 Reference value :  4.17503e-05
 Reference value :  4.17509e-05
 Reference value :  4.17514e-05
 Reference value :  4.17530e-05
 Reference value :  4.17544e-05
 Reference value :  4.17567e-05
 Reference value :  4.17584e-05
 Reference value :  4.17621e-05
 Reference value :  4.17873e-05
 Reference value :  4.20000e-05
 Reference value :  4.20001e-05
 Reference value :  4.20001e-05
 Reference value :  4.20003e-05
 Reference value :  4.20013e-05
 Reference value :  4.20022e-05
 Reference value :  4.20033e-05
 Reference value :  4.20044e-05
 Reference value :  4.20056e-05
 Reference value :  4.20067e-05
 Reference value :  4.20084e-05
 Reference value :  4.20100e-05
 Reference value :  4.20129e-05
 Reference value :  4.20158e-05
 Reference value :  4.20200e-05
 Reference value :  4.20421e-05
 Reference value :  4.20967e-05
 Reference value :  4.21116e-05
 Reference value :  4.21744e-05
 Reference value :  4.22501e-05
 Reference value :  4.22502e-05
 Reference value :  4.22503e-05
 Reference value :  4.22510e-05
 Reference value :  4.22519e-05
 Reference value :  4.22539e-05
 Reference value :  4.22566e-05
 Reference value :  4.22618e-05
 Reference value :  4.22964e-05
 Reference value :  4.23835e-05
 Reference value :  4.25000e-05
 Reference value :  4.25000e-05
 Reference value :  4.25000e-05
 Reference value :  4.25000e-05
 Reference value :  4.25000e-05
 Reference value :  4.25000e-05
 Reference value :  4.25000e-05
 Reference value :  4.25001e-05
 Reference value :  4.25001e-05
 Reference value :  4.25003e-05
 Reference value :  4.25012e-05
 Reference value :  4.25017e-05
 Reference value :  4.25027e-05
 Reference value :  4.25047e-05
 Reference value :  4.25061e-05
 Reference value :  4.25068e-05
 Reference value :  4.25109e-05
 Reference value :  4.25275e-05
 Reference value :  4.25321e-05
 Reference value :  4.25409e-05
 Reference value :  4.25442e-05
 Reference value :  4.25502e-05
 Reference value :  4.25550e-05
 Reference value :  4.25600e-05
 Reference value :  4.25687e-05
 Reference value :  4.25810e-05
 Reference value :  4.26267e-05
 Reference value :  4.27501e-05
 Reference value :  4.27502e-05
 Reference value :  4.27503e-05
 Reference value :  4.27507e-05
 Reference value :  4.27514e-05
 Reference value :  4.27530e-05
 Reference value :  4.27544e-05
 Reference value :  4.27557e-05
 Reference value :  4.27593e-05
 Reference value :  4.27844e-05
 Reference value :  4.30000e-05
 Reference value :  4.30001e-05
 Reference value :  4.30001e-05
 Reference value :  4.30003e-05
 Reference value :  4.30013e-05
 Reference value :  4.30022e-05
 Reference value :  4.30033e-05
 Reference value :  4.30047e-05
 Reference value :  4.30078e-05
 Reference value :  4.30104e-05
 Reference value :  4.30136e-05
 Reference value :  4.30173e-05
 Reference value :  4.30260e-05
 Reference value :  4.30568e-05
 Reference value :  4.32501e-05
 Reference value :  4.32502e-05
 Reference value :  4.32502e-05
 Reference value :  4.32504e-05
 Reference value :  4.32509e-05
 Reference value :  4.32518e-05
 Reference value :  4.32538e-05
 Reference value :  4.32551e-05
 Reference value :  4.32567e-05
 Reference value :  4.32593e-05
 Reference value :  4.32641e-05
 Reference value :  4.32868e-05
 Reference value :  4.34055e-05
 Reference value :  4.35017e-05
 Reference value :  4.35052e-05
 Reference value :  4.35070e-05
 Reference value :  4.35101e-05
 Reference value :  4.35112e-05
 Reference value :  4.35137e-05
 Reference value :  4.35160e-05
 Reference value :  4.35182e-05
 Reference value :  4.35228e-05
 Reference value :  4.35566e-05
 Reference value :  4.36960e-05
 Reference value :  4.37501e-05
 Reference value :  4.37502e-05
 Reference value :  4.37503e-05
 Reference value :  4.37509e-05
 Reference value :  4.37519e-05
 Reference value :  4.37530e-05
 Reference value :  4.37542e-05
 Reference value :  4.37555e-05
 Reference value :  4.37587e-05
 Reference value :  4.37805e-05
 Reference value :  4.40000e-05
 Reference value :  4.40001e-05
 Reference value :  4.40001e-05
 Reference value :  4.40003e-05
 Reference value :  4.40013e-05
 Reference value :  4.40022e-05
 Reference value :  4.40039e-05
 Reference value :  4.40056e-05
 Reference value :  4.40074e-05
 Reference value :  4.40090e-05
 Reference value :  4.40124e-05
 Reference value :  4.40459e-05
 Reference value :  4.42501e-05
 Reference value :  4.42502e-05
 Reference value :  4.42503e-05
 Reference value :  4.42509e-05
 Reference value :  4.42518e-05
 Reference value :  4.42538e-05
 Reference value :  4.42550e-05
 Reference value :  4.42567e-05
 Reference value :  4.42584e-05
 Reference value :  4.42621e-05
 Reference value :  4.42752e-05
 Reference value :  4.44246e-05
 Reference value :  4.45000e-05
 Reference value :  4.45001e-05
 Reference value :  4.45002e-05
 Reference value :  4.45008e-05
 Reference value :  4.45018e-05
 Reference value :  4.45022e-05
 Reference value :  4.45033e-05
 Reference value :  4.45044e-05
 Reference value :  4.45056e-05
 Reference value :  4.45067e-05
 Reference value :  4.45097e-05
 Reference value :  4.45117e-05
 Reference value :  4.45137e-05
 Reference value :  4.45155e-05
 Reference value :  4.45185e-05
 Reference value :  4.45231e-05
 Reference value :  4.45413e-05
 Reference value :  4.46244e-05
 Reference value :  4.47501e-05
 Reference value :  4.47502e-05
 Reference value :  4.47503e-05
 Reference value :  4.47507e-05
 Reference value :  4.47514e-05
 Reference value :  4.47518e-05
 Reference value :  4.47530e-05
 Reference value :  4.47544e-05
 Reference value :  4.47566e-05
 Reference value :  4.47614e-05
 Reference value :  4.48042e-05
 Reference value :  4.50000e-05
 Reference value :  4.50001e-05
 Reference value :  4.50002e-05
 Reference value :  4.50005e-05
 Reference value :  4.50013e-05
 Reference value :  4.50022e-05
 Reference value :  4.50033e-05
 Reference value :  4.50047e-05
 Reference value :  4.50066e-05
 Reference value :  4.50073e-05
 Reference value :  4.50090e-05
 Reference value :  4.50124e-05
 Reference value :  4.50476e-05
 Reference value :  4.52501e-05
 Reference value :  4.52502e-05
 Reference value :  4.52503e-05
 Reference value :  4.52507e-05
 Reference value :  4.52514e-05
 Reference value :  4.52530e-05
 Reference value :  4.52544e-05
 Reference value :  4.52567e-05
 Reference value :  4.52584e-05
 Reference value :  4.52621e-05
 Reference value :  4.52874e-05
 Reference value :  4.55000e-05
 Reference value :  4.55000e-05
 Reference value :  4.55001e-05
 Reference value :  4.55003e-05
 Reference value :  4.55013e-05
 Reference value :  4.55022e-05
 Reference value :  4.55033e-05
 Reference value :  4.55044e-05
 Reference value :  4.55056e-05
 Reference value :  4.55067e-05
 Reference value :  4.55097e-05
 Reference value :  4.55107e-05
 Reference value :  4.55128e-05
 Reference value :  4.55145e-05
 Reference value :  4.55165e-05
 Reference value :  4.55185e-05
 Reference value :  4.55213e-05
 Reference value :  4.55412e-05
 Reference value :  4.56104e-05
 Reference value :  4.57008e-05
 Reference value :  4.57501e-05
 Reference value :  4.57502e-05
 Reference value :  4.57503e-05
 Reference value :  4.57509e-05
 Reference value :  4.57514e-05
 Reference value :  4.57530e-05
 Reference value :  4.57544e-05
 Reference value :  4.57557e-05
 Reference value :  4.57591e-05
 Reference value :  4.57836e-05
 Reference value :  4.59043e-05
 Reference value :  4.60018e-05
 Reference value :  4.60072e-05
 Reference value :  4.60104e-05
 Reference value :  4.60137e-05
 Reference value :  4.60296e-05
 Reference value :  4.61494e-05
 Reference value :  4.62501e-05
 Reference value :  4.62502e-05
 Reference value :  4.62504e-05
 Reference value :  4.62514e-05
 Reference value :  4.62524e-05
 Reference value :  4.62542e-05
 Reference value :  4.62562e-05
 Reference value :  4.62580e-05
 Reference value :  4.62602e-05
 Reference value :  4.62671e-05
 Reference value :  4.63268e-05
 Reference value :  4.65000e-05
 Reference value :  4.65001e-05
 Reference value :  4.65002e-05
 Reference value :  4.65005e-05
 Reference value :  4.65013e-05
 Reference value :  4.65022e-05
 Reference value :  4.65033e-05
 Reference value :  4.65044e-05
 Reference value :  4.65056e-05
 Reference value :  4.65067e-05
 Reference value :  4.65097e-05
 Reference value :  4.65118e-05
 Reference value :  4.65137e-05
 Reference value :  4.65155e-05
 Reference value :  4.65185e-05
 Reference value :  4.65213e-05
 Reference value :  4.65411e-05
 Reference value :  4.65577e-05
 Reference value :  4.65753e-05
 Reference value :  4.65832e-05
 Reference value :  4.66015e-05
 Reference value :  4.67035e-05
 Reference value :  4.67501e-05
 Reference value :  4.67502e-05
 Reference value :  4.67503e-05
 Reference value :  4.67507e-05
 Reference value :  4.67514e-05
 Reference value :  4.67530e-05
[...]
 Reference value :  1.23755e-04
 Reference value :  1.23758e-04
 Reference value :  1.23759e-04
 Reference value :  1.23765e-04
 Reference value :  1.23808e-04
 Reference value :  1.24000e-04
 Reference value :  1.24000e-04
 Reference value :  1.24000e-04
 Reference value :  1.24001e-04
 Reference value :  1.24002e-04
 Reference value :  1.24003e-04
 Reference value :  1.24004e-04
 Reference value :  1.24005e-04
 Reference value :  1.24006e-04
 Reference value :  1.24007e-04
 Reference value :  1.24010e-04
 Reference value :  1.24011e-04
 Reference value :  1.24013e-04
 Reference value :  1.24014e-04
 Reference value :  1.24018e-04
 Reference value :  1.24022e-04
 Reference value :  1.24035e-04
 Reference value :  1.24057e-04
 Reference value :  1.24089e-04
 Reference value :  1.24250e-04
 Reference value :  1.24250e-04
 Reference value :  1.24250e-04
 Reference value :  1.24251e-04
 Reference value :  1.24253e-04
 Reference value :  1.24254e-04
 Reference value :  1.24257e-04
 Reference value :  1.24261e-04
 Reference value :  1.24304e-04
 Reference value :  1.24500e-04
 Reference value :  1.24500e-04
 Reference value :  1.24500e-04
 Reference value :  1.24501e-04
 Reference value :  1.24502e-04
 Reference value :  1.24503e-04
 Reference value :  1.24504e-04
 Reference value :  1.24506e-04
 Reference value :  1.24507e-04
 Reference value :  1.24509e-04
 Reference value :  1.24512e-04
 Reference value :  1.24548e-04
 Reference value :  1.24750e-04
 Reference value :  1.24750e-04
 Reference value :  1.24750e-04
 Reference value :  1.24751e-04
 Reference value :  1.24752e-04
 Reference value :  1.24754e-04
 Reference value :  1.24756e-04
 Reference value :  1.24758e-04
 Reference value :  1.24765e-04
 Reference value :  1.24807e-04
 Reference value :  1.25000e-04
 Reference value :  1.25000e-04
 Reference value :  1.25000e-04
 Reference value :  1.25001e-04
 Reference value :  1.25002e-04
 Reference value :  1.25003e-04
 Reference value :  1.25004e-04
 Reference value :  1.25005e-04
 Reference value :  1.25006e-04
 Reference value :  1.25008e-04
 Reference value :  1.25011e-04
 Reference value :  1.25013e-04
 Reference value :  1.25014e-04
 Reference value :  1.25018e-04
 Reference value :  1.25022e-04
 Reference value :  1.25031e-04
 Reference value :  1.25052e-04
 Reference value :  1.25149e-04
 Reference value :  1.25250e-04
 Reference value :  1.25250e-04
 Reference value :  1.25251e-04
 Reference value :  1.25251e-04
 Reference value :  1.25253e-04
 Reference value :  1.25254e-04
 Reference value :  1.25257e-04
 Reference value :  1.25265e-04
 Reference value :  1.25339e-04
 Reference value :  1.25500e-04
 Reference value :  1.25500e-04
 Reference value :  1.25500e-04
 Reference value :  1.25501e-04
 Reference value :  1.25502e-04
 Reference value :  1.25503e-04
 Reference value :  1.25504e-04
 Reference value :  1.25506e-04
 Reference value :  1.25507e-04
 Reference value :  1.25509e-04
 Reference value :  1.25511e-04
 Reference value :  1.25529e-04
 Reference value :  1.25750e-04
 Reference value :  1.25750e-04
 Reference value :  1.25750e-04
 Reference value :  1.25751e-04
 Reference value :  1.25751e-04
 Reference value :  1.25753e-04
 Reference value :  1.25754e-04
 Reference value :  1.25757e-04
 Reference value :  1.25758e-04
 Reference value :  1.25762e-04
 Reference value :  1.25787e-04
 Reference value :  1.25823e-04
 Reference value :  1.25844e-04
 Reference value :  1.25878e-04
 Reference value :  1.25973e-04
 Reference value :  1.26000e-04
 Reference value :  1.26000e-04
 Reference value :  1.26000e-04
 Reference value :  1.26001e-04
 Reference value :  1.26002e-04
 Reference value :  1.26003e-04
 Reference value :  1.26004e-04
 Reference value :  1.26006e-04
 Reference value :  1.26007e-04
 Reference value :  1.26010e-04
 Reference value :  1.26013e-04
 Reference value :  1.26015e-04
 Reference value :  1.26017e-04
 Reference value :  1.26021e-04
 Reference value :  1.26028e-04
 Reference value :  1.26033e-04
 Reference value :  1.26048e-04
 Reference value :  1.26090e-04
 Reference value :  1.26250e-04
 Reference value :  1.26250e-04
 Reference value :  1.26250e-04
 Reference value :  1.26251e-04
 Reference value :  1.26252e-04
 Reference value :  1.26254e-04
 Reference value :  1.26256e-04
 Reference value :  1.26259e-04
 Reference value :  1.26285e-04
 Reference value :  1.26500e-04
 Reference value :  1.26500e-04
 Reference value :  1.26500e-04
 Reference value :  1.26500e-04
 Reference value :  1.26501e-04
 Reference value :  1.26502e-04
 Reference value :  1.26504e-04
 Reference value :  1.26506e-04
 Reference value :  1.26507e-04
 Reference value :  1.26509e-04
 Reference value :  1.26512e-04
 Reference value :  1.26546e-04
 Reference value :  1.26750e-04
 Reference value :  1.26750e-04
 Reference value :  1.26750e-04
 Reference value :  1.26751e-04
 Reference value :  1.26752e-04
 Reference value :  1.26754e-04
 Reference value :  1.26755e-04
 Reference value :  1.26758e-04
 Reference value :  1.26759e-04
 Reference value :  1.26768e-04
 Reference value :  1.26847e-04
 Reference value :  1.27000e-04
 Reference value :  1.27000e-04
 Reference value :  1.27000e-04
 Reference value :  1.27001e-04
 Reference value :  1.27002e-04
 Reference value :  1.27003e-04
 Reference value :  1.27004e-04
 Reference value :  1.27006e-04
 Reference value :  1.27007e-04
 Reference value :  1.27009e-04
 Reference value :  1.27012e-04
 Reference value :  1.27016e-04
 Reference value :  1.27024e-04
 Reference value :  1.27100e-04
 Reference value :  1.27250e-04
 Reference value :  1.27250e-04
 Reference value :  1.27250e-04
 Reference value :  1.27251e-04
 Reference value :  1.27253e-04
 Reference value :  1.27255e-04
 Reference value :  1.27258e-04
 Reference value :  1.27271e-04
 Reference value :  1.27384e-04
 Reference value :  1.27500e-04
 Reference value :  1.27500e-04
 Reference value :  1.27500e-04
 Reference value :  1.27500e-04
 Reference value :  1.27500e-04
 Reference value :  1.27500e-04
 Reference value :  1.27501e-04
 Reference value :  1.27502e-04
 Reference value :  1.27504e-04
 Reference value :  1.27505e-04
 Reference value :  1.27507e-04
 Reference value :  1.27514e-04
 Reference value :  1.27528e-04
 Reference value :  1.27532e-04
 Reference value :  1.27537e-04
 Reference value :  1.27542e-04
 Reference value :  1.27551e-04
 Reference value :  1.27575e-04
 Reference value :  1.27685e-04
 Reference value :  1.27750e-04
 Reference value :  1.27750e-04
 Reference value :  1.27751e-04
 Reference value :  1.27751e-04
 Reference value :  1.27753e-04
 Reference value :  1.27754e-04
 Reference value :  1.27757e-04
 Reference value :  1.27765e-04
 Reference value :  1.27839e-04
 Reference value :  1.28000e-04
 Reference value :  1.28000e-04
 Reference value :  1.28000e-04
 Reference value :  1.28000e-04
 Reference value :  1.28001e-04
 Reference value :  1.28002e-04
 Reference value :  1.28004e-04
 Reference value :  1.28006e-04
 Reference value :  1.28008e-04
 Reference value :  1.28012e-04
 Reference value :  1.28015e-04
 Reference value :  1.28022e-04
 Reference value :  1.28056e-04
 Reference value :  1.28250e-04
 Reference value :  1.28250e-04
 Reference value :  1.28250e-04
 Reference value :  1.28250e-04
 Reference value :  1.28251e-04
 Reference value :  1.28253e-04
 Reference value :  1.28254e-04
 Reference value :  1.28257e-04
 Reference value :  1.28259e-04
 Reference value :  1.28264e-04
 Reference value :  1.28287e-04
 Reference value :  1.28406e-04
 Reference value :  1.28500e-04
 Reference value :  1.28500e-04
 Reference value :  1.28500e-04
 Reference value :  1.28501e-04
 Reference value :  1.28502e-04
 Reference value :  1.28503e-04
 Reference value :  1.28504e-04
 Reference value :  1.28505e-04
 Reference value :  1.28506e-04
 Reference value :  1.28508e-04
 Reference value :  1.28511e-04
 Reference value :  1.28513e-04
 Reference value :  1.28515e-04
 Reference value :  1.28516e-04
 Reference value :  1.28519e-04
 Reference value :  1.28523e-04
 Reference value :  1.28555e-04
 Reference value :  1.28750e-04
 Reference value :  1.28750e-04
 Reference value :  1.28750e-04
 Reference value :  1.28751e-04
 Reference value :  1.28751e-04
 Reference value :  1.28753e-04
 Reference value :  1.28754e-04
 Reference value :  1.28757e-04
 Reference value :  1.28765e-04
 Reference value :  1.28839e-04
 Reference value :  1.29000e-04
 Reference value :  1.29000e-04
 Reference value :  1.29000e-04
 Reference value :  1.29001e-04
 Reference value :  1.29002e-04
 Reference value :  1.29003e-04
 Reference value :  1.29004e-04
 Reference value :  1.29006e-04
 Reference value :  1.29007e-04
 Reference value :  1.29009e-04
 Reference value :  1.29012e-04
 Reference value :  1.29048e-04
 Reference value :  1.29250e-04
 Reference value :  1.29250e-04
 Reference value :  1.29250e-04
 Reference value :  1.29251e-04
 Reference value :  1.29252e-04
 Reference value :  1.29254e-04
 Reference value :  1.29255e-04
 Reference value :  1.29257e-04
 Reference value :  1.29258e-04
 Reference value :  1.29262e-04
 Reference value :  1.29287e-04
 Reference value :  1.29500e-04
 Reference value :  1.29500e-04
 Reference value :  1.29500e-04
 Reference value :  1.29500e-04
 Reference value :  1.29501e-04
 Reference value :  1.29502e-04
 Reference value :  1.29503e-04
 Reference value :  1.29504e-04
 Reference value :  1.29506e-04
 Reference value :  1.29507e-04
 Reference value :  1.29510e-04
 Reference value :  1.29511e-04
 Reference value :  1.29513e-04
 Reference value :  1.29515e-04
 Reference value :  1.29516e-04
 Reference value :  1.29519e-04
 Reference value :  1.29521e-04
 Reference value :  1.29541e-04
 Reference value :  1.29686e-04
 Reference value :  1.29750e-04
 Reference value :  1.29750e-04
 Reference value :  1.29750e-04
 Reference value :  1.29751e-04
 Reference value :  1.29753e-04
 Reference value :  1.29754e-04
 Reference value :  1.29757e-04
 Reference value :  1.29761e-04
 Reference value :  1.29784e-04
 Reference value :  1.30000e-04
 Reference value :  1.30000e-04
 Reference value :  1.30000e-04
 Reference value :  1.30000e-04
 Reference value :  1.30001e-04
 Reference value :  1.30002e-04
 Reference value :  1.30004e-04
 Reference value :  1.30006e-04
 Reference value :  1.30007e-04
 Reference value :  1.30009e-04
 Reference value :  1.30012e-04
 Reference value :  1.30048e-04
 Reference value :  1.30250e-04
 Reference value :  1.30250e-04
 Reference value :  1.30250e-04
 Reference value :  1.30251e-04
 Reference value :  1.30251e-04
 Reference value :  1.30253e-04
 Reference value :  1.30254e-04
 Reference value :  1.30257e-04
 Reference value :  1.30258e-04
 Reference value :  1.30262e-04
 Reference value :  1.30287e-04
 Reference value :  1.30500e-04
 Reference value :  1.30500e-04
 Reference value :  1.30500e-04
 Reference value :  1.30500e-04
 Reference value :  1.30501e-04
 Reference value :  1.30502e-04
 Reference value :  1.30503e-04
 Reference value :  1.30504e-04
 Reference value :  1.30506e-04
 Reference value :  1.30507e-04
 Reference value :  1.30510e-04
 Reference value :  1.30512e-04
 Reference value :  1.30514e-04
 Reference value :  1.30515e-04
 Reference value :  1.30519e-04
 Reference value :  1.30523e-04
 Reference value :  1.30557e-04
 Reference value :  1.30639e-04
 Reference value :  1.30750e-04
 Reference value :  1.30750e-04
 Reference value :  1.30750e-04
 Reference value :  1.30751e-04
 Reference value :  1.30751e-04
 Reference value :  1.30753e-04
 Reference value :  1.30754e-04
 Reference value :  1.30757e-04
 Reference value :  1.30765e-04
 Reference value :  1.30839e-04
 Reference value :  1.31000e-04
 Reference value :  1.31000e-04
 Reference value :  1.31000e-04
 Reference value :  1.31001e-04
 Reference value :  1.31002e-04
 Reference value :  1.31004e-04
 Reference value :  1.31006e-04
 Reference value :  1.31007e-04
 Reference value :  1.31010e-04
 Reference value :  1.31020e-04
 Reference value :  1.31160e-04
 Reference value :  1.31250e-04
 Reference value :  1.31250e-04
 Reference value :  1.31251e-04
 Reference value :  1.31251e-04
 Reference value :  1.31253e-04
 Reference value :  1.31254e-04
 Reference value :  1.31257e-04
 Reference value :  1.31258e-04
 Reference value :  1.31262e-04
 Reference value :  1.31287e-04
 Reference value :  1.31500e-04
 Reference value :  1.31500e-04
 Reference value :  1.31500e-04
 Reference value :  1.31501e-04
 Reference value :  1.31502e-04
 Reference value :  1.31503e-04
 Reference value :  1.31504e-04
 Reference value :  1.31506e-04
 Reference value :  1.31507e-04
 Reference value :  1.31510e-04
 Reference value :  1.31511e-04
 Reference value :  1.31513e-04
 Reference value :  1.31514e-04
 Reference value :  1.31516e-04
 Reference value :  1.31520e-04
 Reference value :  1.31527e-04
 Reference value :  1.31551e-04
 Reference value :  1.31586e-04
 Reference value :  1.31605e-04
 Reference value :  1.31641e-04
 Reference value :  1.31750e-04
 Reference value :  1.31750e-04
 Reference value :  1.31750e-04
 Reference value :  1.31751e-04
 Reference value :  1.31752e-04
 Reference value :  1.31754e-04
 Reference value :  1.31755e-04
 Reference value :  1.31758e-04
 Reference value :  1.31772e-04
 Reference value :  1.31839e-04
 Reference value :  1.32000e-04
 Reference value :  1.32000e-04
 Reference value :  1.32000e-04
 Reference value :  1.32001e-04
 Reference value :  1.32002e-04
 Reference value :  1.32003e-04
 Reference value :  1.32004e-04
 Reference value :  1.32006e-04
 Reference value :  1.32007e-04
 Reference value :  1.32009e-04
 Reference value :  1.32012e-04
 Reference value :  1.32048e-04
 Reference value :  1.32250e-04
 Reference value :  1.32250e-04
 Reference value :  1.32250e-04
 Reference value :  1.32251e-04
 Reference value :  1.32251e-04
 Reference value :  1.32253e-04
 Reference value :  1.32254e-04
 Reference value :  1.32257e-04
 Reference value :  1.32258e-04
 Reference value :  1.32262e-04
 Reference value :  1.32287e-04
 Reference value :  1.32500e-04
 Reference value :  1.32500e-04
 Reference value :  1.32500e-04
 Reference value :  1.32500e-04
 Reference value :  1.32501e-04
 Reference value :  1.32502e-04
 Reference value :  1.32503e-04
 Reference value :  1.32504e-04
 Reference value :  1.32506e-04
 Reference value :  1.32507e-04
 Reference value :  1.32510e-04
 Reference value :  1.32512e-04
 Reference value :  1.32514e-04
 Reference value :  1.32517e-04
 Reference value :  1.32520e-04
 Reference value :  1.32528e-04
 Reference value :  1.32550e-04
 Reference value :  1.32574e-04
 Reference value :  1.32711e-04
 Reference value :  1.32750e-04
 Reference value :  1.32750e-04
 Reference value :  1.32751e-04
 Reference value :  1.32751e-04
 Reference value :  1.32753e-04
 Reference value :  1.32754e-04
 Reference value :  1.32757e-04
 Reference value :  1.32765e-04
 Reference value :  1.32839e-04
 Reference value :  1.33000e-04
 Reference value :  1.33000e-04
 Reference value :  1.33000e-04
 Reference value :  1.33001e-04
 Reference value :  1.33002e-04
 Reference value :  1.33004e-04
 Reference value :  1.33006e-04
 Reference value :  1.33007e-04
 Reference value :  1.33009e-04
 Reference value :  1.33012e-04
 Reference value :  1.33048e-04
 Reference value :  1.33250e-04
 Reference value :  1.33250e-04
 Reference value :  1.33250e-04
 Reference value :  1.33251e-04
 Reference value :  1.33252e-04
 Reference value :  1.33254e-04
 Reference value :  1.33255e-04
 Reference value :  1.33258e-04
 Reference value :  1.33259e-04
 Reference value :  1.33265e-04
 Reference value :  1.33307e-04
 Reference value :  1.33500e-04
 Reference value :  1.33500e-04
 Reference value :  1.33500e-04
 Reference value :  1.33501e-04
 Reference value :  1.33502e-04
 Reference value :  1.33503e-04
 Reference value :  1.33504e-04
 Reference value :  1.33505e-04
 Reference value :  1.33506e-04
 Reference value :  1.33508e-04
 Reference value :  1.33511e-04
 Reference value :  1.33514e-04
 Reference value :  1.33516e-04
 Reference value :  1.33520e-04
 Reference value :  1.33527e-04
 Reference value :  1.33530e-04
 Reference value :  1.33543e-04
 Reference value :  1.33564e-04
 Reference value :  1.33623e-04
 Reference value :  1.33711e-04
 Reference value :  1.33750e-04
 Reference value :  1.33750e-04
 Reference value :  1.33750e-04
 Reference value :  1.33750e-04
 Reference value :  1.33751e-04
 Reference value :  1.33751e-04
 Reference value :  1.33752e-04
 Reference value :  1.33754e-04
 Reference value :  1.33755e-04
 Reference value :  1.33758e-04
 Reference value :  1.33772e-04
 Reference value :  1.33823e-04
 Reference value :  1.33855e-04
 Reference value :  1.34000e-04
 Reference value :  1.34000e-04
 Reference value :  1.34000e-04
 Reference value :  1.34000e-04
 Reference value :  1.34001e-04
 Reference value :  1.34002e-04
 Reference value :  1.34003e-04
 Reference value :  1.34004e-04
 Reference value :  1.34005e-04
 Reference value :  1.34006e-04
 Reference value :  1.34008e-04
 Reference value :  1.34012e-04
 Reference value :  1.34028e-04
 Reference value :  1.34250e-04
 Reference value :  1.34250e-04
 Reference value :  1.34250e-04
 Reference value :  1.34251e-04
 Reference value :  1.34251e-04
 Reference value :  1.34252e-04
 Reference value :  1.34254e-04
 Reference value :  1.34257e-04
 Reference value :  1.34261e-04
 Reference value :  1.34284e-04
 Reference value :  1.34500e-04
 Reference value :  1.34500e-04
 Reference value :  1.34500e-04
 Reference value :  1.34500e-04
 Reference value :  1.34501e-04
 Reference value :  1.34502e-04
 Reference value :  1.34503e-04
 Reference value :  1.34504e-04
 Reference value :  1.34506e-04
 Reference value :  1.34507e-04
 Reference value :  1.34510e-04
 Reference value :  1.34513e-04
 Reference value :  1.34515e-04
 Reference value :  1.34517e-04
 Reference value :  1.34521e-04
 Reference value :  1.34538e-04
 Reference value :  1.34547e-04
 Reference value :  1.34567e-04
 Reference value :  1.34605e-04
 Reference value :  1.34662e-04
 Reference value :  1.34750e-04
 Reference value :  1.34750e-04
 Reference value :  1.34751e-04
 Reference value :  1.34751e-04
 Reference value :  1.34753e-04
 Reference value :  1.34754e-04
 Reference value :  1.34757e-04
 Reference value :  1.34762e-04
 Reference value :  1.34785e-04
 Reference value :  1.34900e-04
 Reference value :  1.35000e-04
 Reference value :  1.35000e-04
 Reference value :  1.35000e-04
 Reference value :  1.35001e-04
 Reference value :  1.35002e-04
 Reference value :  1.35004e-04
 Reference value :  1.35006e-04
 Reference value :  1.35007e-04
 Reference value :  1.35009e-04
 Reference value :  1.35012e-04
 Reference value :  1.35048e-04
 Reference value :  1.35250e-04
 Reference value :  1.35250e-04
 Reference value :  1.35250e-04
 Reference value :  1.35251e-04
 Reference value :  1.35252e-04
 Reference value :  1.35254e-04
 Reference value :  1.35255e-04
 Reference value :  1.35258e-04
 Reference value :  1.35259e-04
 Reference value :  1.35268e-04
 Reference value :  1.35348e-04
 Reference value :  1.35500e-04
 Reference value :  1.35500e-04
 Reference value :  1.35500e-04
 Reference value :  1.35501e-04
 Reference value :  1.35502e-04
 Reference value :  1.35503e-04
 Reference value :  1.35504e-04
 Reference value :  1.35506e-04
 Reference value :  1.35507e-04
 Reference value :  1.35508e-04
 Reference value :  1.35510e-04
 Reference value :  1.35513e-04
 Reference value :  1.35517e-04
 Reference value :  1.35533e-04
 Reference value :  1.35600e-04
 Reference value :  1.35750e-04
 Reference value :  1.35750e-04
 Reference value :  1.35750e-04
 Reference value :  1.35751e-04
 Reference value :  1.35751e-04
 Reference value :  1.35753e-04
 Reference value :  1.35755e-04
 Reference value :  1.35758e-04
 Reference value :  1.35771e-04
 Reference value :  1.35826e-04
 Reference value :  1.35878e-04
 Reference value :  1.35985e-04
No. of Data Rows : 19342
ngspice-44 done
