
Note: Compatibility modes selected: hs a


Circuit: ** sch_path: /home/audrey/cace/sar-adc-using-sky130-pdk/runs/run_2025-09-10_17-05-42/parameters/power/run_3/power_consumption.sch

option SCALE: Scale is set to 1e-06 for instance and model parameters
option SCALE: Scale is set to 1e-06 for instance and model parameters
option SCALE: Scale is set to 1e-06 for instance and model parameters
option SCALE: Scale is set to 1e-06 for instance and model parameters
Doing analysis at TEMP = 27.000000 and TNOM = 27.000000

Using KLU as Direct Linear Solver
 Reference value :  0.00000e+00
 Reference value :  1.00000e-12
 Reference value :  2.00000e-12
 Reference value :  4.00000e-12
 Reference value :  8.00000e-12
 Reference value :  1.60000e-11
 Reference value :  3.20000e-11
 Reference value :  6.40000e-11
 Reference value :  1.00000e-10
 Reference value :  1.01503e-10
 Reference value :  1.04508e-10
 Reference value :  1.10520e-10
 Reference value :  1.22542e-10
 Reference value :  1.46587e-10
 Reference value :  1.94677e-10
 Reference value :  2.90857e-10
 Reference value :  4.36273e-10
 Reference value :  7.02956e-10
 Reference value :  1.20532e-09
 Reference value :  1.70414e-09
 Reference value :  2.47424e-09
 Reference value :  3.11229e-09
 Reference value :  3.80813e-09
 Reference value :  4.60858e-09
 Reference value :  5.35872e-09
 Reference value :  6.05238e-09
 Reference value :  6.79999e-09
 Reference value :  7.53557e-09
 Reference value :  8.36116e-09
 Reference value :  9.32642e-09
 Reference value :  1.03541e-08
 Reference value :  1.15334e-08
 Reference value :  1.28053e-08
 Reference value :  1.40766e-08
 Reference value :  1.56346e-08
 Reference value :  1.72581e-08
 Reference value :  1.85793e-08
 Reference value :  1.99890e-08
 Reference value :  2.13300e-08
 Reference value :  2.31345e-08
 Reference value :  2.51455e-08
 Reference value :  2.69800e-08
 Reference value :  2.94069e-08
 Reference value :  3.24112e-08
 Reference value :  3.58188e-08
 Reference value :  3.96282e-08
 Reference value :  4.31272e-08
 Reference value :  4.51331e-08
 Reference value :  4.70971e-08
 Reference value :  4.93899e-08
 Reference value :  5.15692e-08
 Reference value :  5.47455e-08
 Reference value :  5.82627e-08
 Reference value :  6.28115e-08
 Reference value :  6.72717e-08
 Reference value :  7.57903e-08
 Reference value :  8.67243e-08
 Reference value :  1.03641e-07
 Reference value :  1.30092e-07
 Reference value :  1.68511e-07
 Reference value :  2.24326e-07
 Reference value :  2.50100e-07
 Reference value :  2.50110e-07
 Reference value :  2.50130e-07
 Reference value :  2.50170e-07
 Reference value :  2.50200e-07
 Reference value :  2.50201e-07
 Reference value :  2.50202e-07
 Reference value :  2.50204e-07
 Reference value :  2.50208e-07
 Reference value :  2.50216e-07
 Reference value :  2.50234e-07
 Reference value :  2.50268e-07
 Reference value :  2.50336e-07
 Reference value :  2.50414e-07
 Reference value :  2.50571e-07
 Reference value :  2.50726e-07
 Reference value :  2.51017e-07
 Reference value :  2.51366e-07
 Reference value :  2.51947e-07
 Reference value :  2.52490e-07
 Reference value :  2.53375e-07
 Reference value :  2.54198e-07
 Reference value :  2.55149e-07
 Reference value :  2.55856e-07
 Reference value :  2.56676e-07
 Reference value :  2.57631e-07
 Reference value :  2.58744e-07
 Reference value :  2.60042e-07
 Reference value :  2.62275e-07
 Reference value :  2.64327e-07
 Reference value :  2.68129e-07
 Reference value :  2.73021e-07
 Reference value :  2.82805e-07
 Reference value :  3.00926e-07
 Reference value :  3.31179e-07
 Reference value :  3.91686e-07
 Reference value :  5.00000e-07
 Reference value :  5.00010e-07
 Reference value :  5.00030e-07
 Reference value :  5.00070e-07
 Reference value :  5.00100e-07
 Reference value :  5.00104e-07
 Reference value :  5.00113e-07
 Reference value :  5.00129e-07
 Reference value :  5.00163e-07
 Reference value :  5.00230e-07
 Reference value :  5.00364e-07
 Reference value :  5.00540e-07
 Reference value :  5.00892e-07
 Reference value :  5.01512e-07
 Reference value :  5.02197e-07
 Reference value :  5.02817e-07
 Reference value :  5.03504e-07
 Reference value :  5.04211e-07
 Reference value :  5.05146e-07
 Reference value :  5.06119e-07
 Reference value :  5.07108e-07
 Reference value :  5.08389e-07
 Reference value :  5.09824e-07
 Reference value :  5.11770e-07
 Reference value :  5.14083e-07
 Reference value :  5.15935e-07
 Reference value :  5.17923e-07
 Reference value :  5.20019e-07
 Reference value :  5.22501e-07
 Reference value :  5.25528e-07
 Reference value :  5.28293e-07
 Reference value :  5.33823e-07
 Reference value :  5.41830e-07
 Reference value :  5.52034e-07
 Reference value :  5.72444e-07
 Reference value :  6.08772e-07
 Reference value :  6.34725e-07
 Reference value :  6.59300e-07
 Reference value :  6.71417e-07
 Reference value :  6.83308e-07
 Reference value :  6.90784e-07
 Reference value :  6.99480e-07
 Reference value :  7.12939e-07
 Reference value :  7.28248e-07
 Reference value :  7.50100e-07
 Reference value :  7.50110e-07
 Reference value :  7.50130e-07
 Reference value :  7.50170e-07
 Reference value :  7.50200e-07
 Reference value :  7.50201e-07
 Reference value :  7.50202e-07
 Reference value :  7.50205e-07
 Reference value :  7.50211e-07
 Reference value :  7.50223e-07
 Reference value :  7.50247e-07
 Reference value :  7.50295e-07
 Reference value :  7.50390e-07
 Reference value :  7.50581e-07
 Reference value :  7.50959e-07
 Reference value :  7.51373e-07
 Reference value :  7.51899e-07
 Reference value :  7.52508e-07
 Reference value :  7.53291e-07
 Reference value :  7.54196e-07
 Reference value :  7.55393e-07
 Reference value :  7.56328e-07
 Reference value :  7.57318e-07
 Reference value :  7.58343e-07
 Reference value :  7.59436e-07
 Reference value :  7.60656e-07
 Reference value :  7.61964e-07
 Reference value :  7.63362e-07
 Reference value :  7.65536e-07
 Reference value :  7.67844e-07
 Reference value :  7.71329e-07
 Reference value :  7.76793e-07
 Reference value :  7.87722e-07
 Reference value :  8.09578e-07
 Reference value :  8.53292e-07
 Reference value :  9.40718e-07
 Reference value :  1.00000e-06
 Reference value :  1.00001e-06
 Reference value :  1.00003e-06
 Reference value :  1.00007e-06
 Reference value :  1.00010e-06
 Reference value :  1.00010e-06
 Reference value :  1.00011e-06
 Reference value :  1.00013e-06
 Reference value :  1.00016e-06
 Reference value :  1.00023e-06
 Reference value :  1.00036e-06
 Reference value :  1.00054e-06
 Reference value :  1.00089e-06
 Reference value :  1.00150e-06
 Reference value :  1.00219e-06
 Reference value :  1.00282e-06
 Reference value :  1.00346e-06
 Reference value :  1.00415e-06
 Reference value :  1.00499e-06
 Reference value :  1.00589e-06
 Reference value :  1.00677e-06
 Reference value :  1.00767e-06
 Reference value :  1.00867e-06
 Reference value :  1.00970e-06
 Reference value :  1.01064e-06
 Reference value :  1.01209e-06
 Reference value :  1.01360e-06
 Reference value :  1.01596e-06
 Reference value :  1.01769e-06
 Reference value :  1.01951e-06
 Reference value :  1.02118e-06
 Reference value :  1.02265e-06
 Reference value :  1.02412e-06
 Reference value :  1.02571e-06
 Reference value :  1.02717e-06
 Reference value :  1.02898e-06
 Reference value :  1.03114e-06
 Reference value :  1.03350e-06
 Reference value :  1.03783e-06
 Reference value :  1.04394e-06
 Reference value :  1.05196e-06
 Reference value :  1.06359e-06
 Reference value :  1.08006e-06
 Reference value :  1.09730e-06
 Reference value :  1.11313e-06
 Reference value :  1.12422e-06
 Reference value :  1.13435e-06
 Reference value :  1.14693e-06
 Reference value :  1.16028e-06
 Reference value :  1.17953e-06
 Reference value :  1.20336e-06
 Reference value :  1.23467e-06
 Reference value :  1.25010e-06
 Reference value :  1.25011e-06
 Reference value :  1.25013e-06
 Reference value :  1.25017e-06
 Reference value :  1.25020e-06
 Reference value :  1.25020e-06
 Reference value :  1.25020e-06
 Reference value :  1.25021e-06
 Reference value :  1.25021e-06
 Reference value :  1.25022e-06
 Reference value :  1.25025e-06
 Reference value :  1.25029e-06
 Reference value :  1.25039e-06
 Reference value :  1.25058e-06
 Reference value :  1.25092e-06
 Reference value :  1.25135e-06
 Reference value :  1.25187e-06
 Reference value :  1.25248e-06
 Reference value :  1.25324e-06
 Reference value :  1.25412e-06
 Reference value :  1.25531e-06
 Reference value :  1.25620e-06
 Reference value :  1.25714e-06
 Reference value :  1.25821e-06
 Reference value :  1.25977e-06
 Reference value :  1.26119e-06
 Reference value :  1.26374e-06
 Reference value :  1.26665e-06
 Reference value :  1.27211e-06
 Reference value :  1.28303e-06
 Reference value :  1.30256e-06
 Reference value :  1.34161e-06
 Reference value :  1.41637e-06
 Reference value :  1.50000e-06
 Reference value :  1.50001e-06
 Reference value :  1.50003e-06
 Reference value :  1.50007e-06
 Reference value :  1.50010e-06
 Reference value :  1.50010e-06
 Reference value :  1.50011e-06
 Reference value :  1.50013e-06
 Reference value :  1.50016e-06
 Reference value :  1.50023e-06
 Reference value :  1.50036e-06
 Reference value :  1.50053e-06
 Reference value :  1.50087e-06
 Reference value :  1.50145e-06
 Reference value :  1.50221e-06
 Reference value :  1.50288e-06
 Reference value :  1.50356e-06
 Reference value :  1.50426e-06
 Reference value :  1.50524e-06
 Reference value :  1.50619e-06
 Reference value :  1.50715e-06
 Reference value :  1.50858e-06
 Reference value :  1.50996e-06
 Reference value :  1.51127e-06
 Reference value :  1.51268e-06
 Reference value :  1.51422e-06
 Reference value :  1.51590e-06
 Reference value :  1.51747e-06
 Reference value :  1.51953e-06
 Reference value :  1.52175e-06
 Reference value :  1.52565e-06
 Reference value :  1.53151e-06
 Reference value :  1.54177e-06
 Reference value :  1.56072e-06
 Reference value :  1.59403e-06
 Reference value :  1.65736e-06
 Reference value :  1.75010e-06
 Reference value :  1.75011e-06
 Reference value :  1.75013e-06
 Reference value :  1.75017e-06
 Reference value :  1.75020e-06
 Reference value :  1.75020e-06
 Reference value :  1.75020e-06
 Reference value :  1.75021e-06
 Reference value :  1.75021e-06
 Reference value :  1.75022e-06
 Reference value :  1.75025e-06
 Reference value :  1.75029e-06
 Reference value :  1.75039e-06
 Reference value :  1.75058e-06
 Reference value :  1.75092e-06
 Reference value :  1.75135e-06
 Reference value :  1.75187e-06
 Reference value :  1.75248e-06
 Reference value :  1.75324e-06
 Reference value :  1.75411e-06
 Reference value :  1.75529e-06
 Reference value :  1.75619e-06
 Reference value :  1.75715e-06
 Reference value :  1.75818e-06
 Reference value :  1.75930e-06
 Reference value :  1.76053e-06
 Reference value :  1.76297e-06
 Reference value :  1.76560e-06
 Reference value :  1.77023e-06
 Reference value :  1.77862e-06
 Reference value :  1.79539e-06
 Reference value :  1.82893e-06
 Reference value :  1.89413e-06
 Reference value :  2.00000e-06
 Reference value :  2.00001e-06
 Reference value :  2.00003e-06
 Reference value :  2.00007e-06
 Reference value :  2.00010e-06
 Reference value :  2.00010e-06
 Reference value :  2.00011e-06
 Reference value :  2.00013e-06
 Reference value :  2.00016e-06
 Reference value :  2.00023e-06
 Reference value :  2.00036e-06
 Reference value :  2.00053e-06
 Reference value :  2.00087e-06
 Reference value :  2.00145e-06
 Reference value :  2.00221e-06
 Reference value :  2.00288e-06
 Reference value :  2.00356e-06
 Reference value :  2.00427e-06
 Reference value :  2.00525e-06
 Reference value :  2.00603e-06
 Reference value :  2.00686e-06
 Reference value :  2.00785e-06
 Reference value :  2.00893e-06
 Reference value :  2.00992e-06
 Reference value :  2.01096e-06
 Reference value :  2.01237e-06
 Reference value :  2.01398e-06
 Reference value :  2.01628e-06
 Reference value :  2.01849e-06
 Reference value :  2.02053e-06
 Reference value :  2.02215e-06
 Reference value :  2.02369e-06
 Reference value :  2.02529e-06
 Reference value :  2.02696e-06
 Reference value :  2.02890e-06
 Reference value :  2.03080e-06
 Reference value :  2.03343e-06
 Reference value :  2.03789e-06
 Reference value :  2.04541e-06
 Reference value :  2.05968e-06
 Reference value :  2.07766e-06
 Reference value :  2.10560e-06
 Reference value :  2.14368e-06
 Reference value :  2.20392e-06
 Reference value :  2.25010e-06
 Reference value :  2.25011e-06
 Reference value :  2.25013e-06
 Reference value :  2.25017e-06
 Reference value :  2.25020e-06
 Reference value :  2.25020e-06
 Reference value :  2.25020e-06
 Reference value :  2.25021e-06
 Reference value :  2.25021e-06
 Reference value :  2.25022e-06
 Reference value :  2.25025e-06
 Reference value :  2.25029e-06
 Reference value :  2.25039e-06
 Reference value :  2.25058e-06
 Reference value :  2.25092e-06
 Reference value :  2.25135e-06
 Reference value :  2.25187e-06
 Reference value :  2.25248e-06
 Reference value :  2.25324e-06
 Reference value :  2.25411e-06
 Reference value :  2.25531e-06
 Reference value :  2.25620e-06
 Reference value :  2.25715e-06
 Reference value :  2.25824e-06
 Reference value :  2.25978e-06
 Reference value :  2.26123e-06
 Reference value :  2.26376e-06
 Reference value :  2.26672e-06
 Reference value :  2.27219e-06
 Reference value :  2.28314e-06
 Reference value :  2.30257e-06
 Reference value :  2.34143e-06
 Reference value :  2.41498e-06
 Reference value :  2.50000e-06
 Reference value :  2.50001e-06
 Reference value :  2.50003e-06
 Reference value :  2.50007e-06
 Reference value :  2.50010e-06
 Reference value :  2.50010e-06
 Reference value :  2.50011e-06
 Reference value :  2.50013e-06
 Reference value :  2.50016e-06
 Reference value :  2.50023e-06
 Reference value :  2.50036e-06
 Reference value :  2.50053e-06
 Reference value :  2.50087e-06
 Reference value :  2.50145e-06
 Reference value :  2.50221e-06
 Reference value :  2.50288e-06
 Reference value :  2.50355e-06
 Reference value :  2.50426e-06
 Reference value :  2.50524e-06
 Reference value :  2.50619e-06
 Reference value :  2.50718e-06
 Reference value :  2.50863e-06
 Reference value :  2.51001e-06
 Reference value :  2.51130e-06
 Reference value :  2.51267e-06
 Reference value :  2.51419e-06
 Reference value :  2.51586e-06
 Reference value :  2.51743e-06
 Reference value :  2.51962e-06
 Reference value :  2.52192e-06
 Reference value :  2.52610e-06
 Reference value :  2.53241e-06
 Reference value :  2.54343e-06
 Reference value :  2.56410e-06
 Reference value :  2.60021e-06
 Reference value :  2.66942e-06
 Reference value :  2.75010e-06
 Reference value :  2.75011e-06
 Reference value :  2.75013e-06
 Reference value :  2.75017e-06
 Reference value :  2.75020e-06
 Reference value :  2.75020e-06
 Reference value :  2.75020e-06
 Reference value :  2.75021e-06
 Reference value :  2.75021e-06
 Reference value :  2.75022e-06
 Reference value :  2.75025e-06
 Reference value :  2.75029e-06
 Reference value :  2.75039e-06
 Reference value :  2.75058e-06
 Reference value :  2.75092e-06
 Reference value :  2.75134e-06
 Reference value :  2.75187e-06
 Reference value :  2.75248e-06
 Reference value :  2.75323e-06
 Reference value :  2.75411e-06
 Reference value :  2.75529e-06
 Reference value :  2.75619e-06
 Reference value :  2.75714e-06
 Reference value :  2.75818e-06
 Reference value :  2.75930e-06
 Reference value :  2.76052e-06
 Reference value :  2.76294e-06
 Reference value :  2.76557e-06
 Reference value :  2.77018e-06
 Reference value :  2.77849e-06
 Reference value :  2.79510e-06
 Reference value :  2.82834e-06
 Reference value :  2.89287e-06
 Reference value :  3.00000e-06
 Reference value :  3.00001e-06
 Reference value :  3.00003e-06
 Reference value :  3.00007e-06
 Reference value :  3.00010e-06
 Reference value :  3.00010e-06
 Reference value :  3.00011e-06
 Reference value :  3.00013e-06
 Reference value :  3.00016e-06
 Reference value :  3.00023e-06
 Reference value :  3.00036e-06
 Reference value :  3.00053e-06
 Reference value :  3.00087e-06
 Reference value :  3.00145e-06
 Reference value :  3.00221e-06
 Reference value :  3.00288e-06
 Reference value :  3.00356e-06
 Reference value :  3.00426e-06
 Reference value :  3.00525e-06
 Reference value :  3.00603e-06
 Reference value :  3.00685e-06
 Reference value :  3.00785e-06
 Reference value :  3.00892e-06
 Reference value :  3.01001e-06
 Reference value :  3.01102e-06
 Reference value :  3.01246e-06
 Reference value :  3.01411e-06
 Reference value :  3.01671e-06
 Reference value :  3.01868e-06
 Reference value :  3.02078e-06
 Reference value :  3.02227e-06
 Reference value :  3.02361e-06
 Reference value :  3.02498e-06
 Reference value :  3.02651e-06
 Reference value :  3.02826e-06
 Reference value :  3.03003e-06
 Reference value :  3.03275e-06
 Reference value :  3.03666e-06
 Reference value :  3.04349e-06
 Reference value :  3.05648e-06
 Reference value :  3.07174e-06
 Reference value :  3.09345e-06
 Reference value :  3.13272e-06
 Reference value :  3.16121e-06
 Reference value :  3.19388e-06
 Reference value :  3.21610e-06
 Reference value :  3.23651e-06
 Reference value :  3.24820e-06
 Reference value :  3.25010e-06
 Reference value :  3.25011e-06
 Reference value :  3.25013e-06
 Reference value :  3.25017e-06
 Reference value :  3.25020e-06
 Reference value :  3.25020e-06
 Reference value :  3.25020e-06
 Reference value :  3.25021e-06
 Reference value :  3.25021e-06
 Reference value :  3.25022e-06
 Reference value :  3.25025e-06
 Reference value :  3.25029e-06
 Reference value :  3.25039e-06
 Reference value :  3.25058e-06
 Reference value :  3.25092e-06
 Reference value :  3.25135e-06
 Reference value :  3.25187e-06
 Reference value :  3.25248e-06
 Reference value :  3.25323e-06
 Reference value :  3.25411e-06
 Reference value :  3.25531e-06
 Reference value :  3.25620e-06
 Reference value :  3.25714e-06
 Reference value :  3.25822e-06
 Reference value :  3.25978e-06
 Reference value :  3.26120e-06
 Reference value :  3.26375e-06
 Reference value :  3.26666e-06
 Reference value :  3.27213e-06
 Reference value :  3.28307e-06
 Reference value :  3.30233e-06
 Reference value :  3.34086e-06
 Reference value :  3.39646e-06
 Reference value :  3.45593e-06
 Reference value :  3.50000e-06
 Reference value :  3.50001e-06
 Reference value :  3.50003e-06
 Reference value :  3.50007e-06
 Reference value :  3.50010e-06
 Reference value :  3.50010e-06
 Reference value :  3.50011e-06
 Reference value :  3.50013e-06
 Reference value :  3.50016e-06
 Reference value :  3.50023e-06
 Reference value :  3.50036e-06
 Reference value :  3.50053e-06
 Reference value :  3.50087e-06
 Reference value :  3.50144e-06
 Reference value :  3.50221e-06
 Reference value :  3.50289e-06
 Reference value :  3.50356e-06
 Reference value :  3.50427e-06
 Reference value :  3.50525e-06
 Reference value :  3.50620e-06
 Reference value :  3.50718e-06
 Reference value :  3.50863e-06
 Reference value :  3.51001e-06
 Reference value :  3.51129e-06
 Reference value :  3.51265e-06
 Reference value :  3.51418e-06
 Reference value :  3.51584e-06
 Reference value :  3.51767e-06
 Reference value :  3.51967e-06
 Reference value :  3.52368e-06
 Reference value :  3.52978e-06
 Reference value :  3.54199e-06
 Reference value :  3.56530e-06
 Reference value :  3.60689e-06
 Reference value :  3.69005e-06
 Reference value :  3.75010e-06
 Reference value :  3.75011e-06
 Reference value :  3.75013e-06
 Reference value :  3.75017e-06
 Reference value :  3.75020e-06
 Reference value :  3.75020e-06
 Reference value :  3.75020e-06
 Reference value :  3.75021e-06
 Reference value :  3.75021e-06
 Reference value :  3.75022e-06
 Reference value :  3.75025e-06
 Reference value :  3.75030e-06
 Reference value :  3.75039e-06
 Reference value :  3.75059e-06
 Reference value :  3.75094e-06
 Reference value :  3.75136e-06
 Reference value :  3.75188e-06
 Reference value :  3.75249e-06
 Reference value :  3.75325e-06
 Reference value :  3.75413e-06
 Reference value :  3.75531e-06
 Reference value :  3.75623e-06
 Reference value :  3.75719e-06
 Reference value :  3.75822e-06
 Reference value :  3.75933e-06
 Reference value :  3.76055e-06
 Reference value :  3.76299e-06
 Reference value :  3.76566e-06
 Reference value :  3.77031e-06
 Reference value :  3.77878e-06
 Reference value :  3.79572e-06
 Reference value :  3.82931e-06
 Reference value :  3.89437e-06
 Reference value :  4.00000e-06
 Reference value :  4.00001e-06
 Reference value :  4.00003e-06
 Reference value :  4.00007e-06
 Reference value :  4.00010e-06
 Reference value :  4.00010e-06
 Reference value :  4.00011e-06
 Reference value :  4.00013e-06
 Reference value :  4.00016e-06
 Reference value :  4.00023e-06
 Reference value :  4.00036e-06
 Reference value :  4.00053e-06
 Reference value :  4.00087e-06
 Reference value :  4.00145e-06
 Reference value :  4.00221e-06
 Reference value :  4.00288e-06
 Reference value :  4.00356e-06
 Reference value :  4.00427e-06
 Reference value :  4.00525e-06
 Reference value :  4.00603e-06
 Reference value :  4.00685e-06
 Reference value :  4.00785e-06
 Reference value :  4.00893e-06
 Reference value :  4.00993e-06
 Reference value :  4.01098e-06
 Reference value :  4.01233e-06
 Reference value :  4.01406e-06
 Reference value :  4.01669e-06
 Reference value :  4.01868e-06
 Reference value :  4.02081e-06
 Reference value :  4.02231e-06
 Reference value :  4.02381e-06
 Reference value :  4.02519e-06
 Reference value :  4.02678e-06
 Reference value :  4.02842e-06
 Reference value :  4.03061e-06
 Reference value :  4.03286e-06
 Reference value :  4.03730e-06
 Reference value :  4.04380e-06
 Reference value :  4.04973e-06
 Reference value :  4.05554e-06
 Reference value :  4.06184e-06
 Reference value :  4.06627e-06
 Reference value :  4.07107e-06
 Reference value :  4.07553e-06
 Reference value :  4.08104e-06
 Reference value :  4.08812e-06
 Reference value :  4.09414e-06
 Reference value :  4.10122e-06
 Reference value :  4.11252e-06
 Reference value :  4.12818e-06
 Reference value :  4.15138e-06
 Reference value :  4.18673e-06
 Reference value :  4.23928e-06
 Reference value :  4.25010e-06
 Reference value :  4.25011e-06
 Reference value :  4.25013e-06
 Reference value :  4.25017e-06
 Reference value :  4.25020e-06
 Reference value :  4.25020e-06
 Reference value :  4.25020e-06
 Reference value :  4.25021e-06
 Reference value :  4.25021e-06
 Reference value :  4.25022e-06
 Reference value :  4.25025e-06
 Reference value :  4.25029e-06
 Reference value :  4.25039e-06
 Reference value :  4.25058e-06
 Reference value :  4.25092e-06
 Reference value :  4.25134e-06
 Reference value :  4.25187e-06
 Reference value :  4.25248e-06
 Reference value :  4.25323e-06
 Reference value :  4.25411e-06
 Reference value :  4.25524e-06
 Reference value :  4.25616e-06
 Reference value :  4.25712e-06
 Reference value :  4.25819e-06
 Reference value :  4.25979e-06
 Reference value :  4.26130e-06
 Reference value :  4.26381e-06
 Reference value :  4.26675e-06
 Reference value :  4.27208e-06
 Reference value :  4.28273e-06
 Reference value :  4.30163e-06
 Reference value :  4.33927e-06
 Reference value :  4.40998e-06
 Reference value :  4.50000e-06
 Reference value :  4.50001e-06
 Reference value :  4.50003e-06
 Reference value :  4.50007e-06
 Reference value :  4.50010e-06
 Reference value :  4.50010e-06
 Reference value :  4.50011e-06
 Reference value :  4.50013e-06
 Reference value :  4.50016e-06
 Reference value :  4.50023e-06
 Reference value :  4.50036e-06
 Reference value :  4.50053e-06
 Reference value :  4.50087e-06
 Reference value :  4.50145e-06
 Reference value :  4.50221e-06
 Reference value :  4.50284e-06
 Reference value :  4.50350e-06
 Reference value :  4.50419e-06
 Reference value :  4.50515e-06
 Reference value :  4.50611e-06
 Reference value :  4.50705e-06
 Reference value :  4.50854e-06
 Reference value :  4.50989e-06
 Reference value :  4.51119e-06
 Reference value :  4.51260e-06
 Reference value :  4.51393e-06
 Reference value :  4.51546e-06
 Reference value :  4.51706e-06
 Reference value :  4.51881e-06
 Reference value :  4.52230e-06
 Reference value :  4.52930e-06
 Reference value :  4.54114e-06
 Reference value :  4.56481e-06
 Reference value :  4.60923e-06
 Reference value :  4.69807e-06
 Reference value :  4.75010e-06
 Reference value :  4.75011e-06
 Reference value :  4.75013e-06
 Reference value :  4.75017e-06
 Reference value :  4.75020e-06
 Reference value :  4.75020e-06
 Reference value :  4.75020e-06
 Reference value :  4.75021e-06
 Reference value :  4.75021e-06
 Reference value :  4.75022e-06
 Reference value :  4.75025e-06
 Reference value :  4.75030e-06
 Reference value :  4.75039e-06
 Reference value :  4.75059e-06
 Reference value :  4.75093e-06
 Reference value :  4.75136e-06
 Reference value :  4.75188e-06
 Reference value :  4.75249e-06
 Reference value :  4.75325e-06
 Reference value :  4.75413e-06
 Reference value :  4.75531e-06
 Reference value :  4.75623e-06
 Reference value :  4.75720e-06
 Reference value :  4.75822e-06
 Reference value :  4.75933e-06
 Reference value :  4.76056e-06
 Reference value :  4.76184e-06
 Reference value :  4.76324e-06
 Reference value :  4.76537e-06
 Reference value :  4.76769e-06
 Reference value :  4.77130e-06
 Reference value :  4.77700e-06
 Reference value :  4.78840e-06
 Reference value :  4.81120e-06
 Reference value :  4.85650e-06
 Reference value :  4.94709e-06
 Reference value :  5.00000e-06
 Reference value :  5.00001e-06
 Reference value :  5.00003e-06
 Reference value :  5.00007e-06
 Reference value :  5.00010e-06
 Reference value :  5.00010e-06
 Reference value :  5.00011e-06
 Reference value :  5.00013e-06
 Reference value :  5.00016e-06
 Reference value :  5.00023e-06
 Reference value :  5.00036e-06
 Reference value :  5.00053e-06
 Reference value :  5.00087e-06
 Reference value :  5.00144e-06
 Reference value :  5.00221e-06
 Reference value :  5.00288e-06
 Reference value :  5.00356e-06
 Reference value :  5.00427e-06
 Reference value :  5.00524e-06
 Reference value :  5.00602e-06
 Reference value :  5.00684e-06
 Reference value :  5.00781e-06
 Reference value :  5.00872e-06
 Reference value :  5.00969e-06
 Reference value :  5.01066e-06
 Reference value :  5.01191e-06
 Reference value :  5.01360e-06
 Reference value :  5.01479e-06
 Reference value :  5.01618e-06
 Reference value :  5.01759e-06
 Reference value :  5.01924e-06
 Reference value :  5.02107e-06
 Reference value :  5.02254e-06
 Reference value :  5.02409e-06
 Reference value :  5.02554e-06
 Reference value :  5.02709e-06
 Reference value :  5.02881e-06
 Reference value :  5.03102e-06
 Reference value :  5.03333e-06
 Reference value :  5.03730e-06
 Reference value :  5.04186e-06
 Reference value :  5.04635e-06
 Reference value :  5.04974e-06
 Reference value :  5.05251e-06
 Reference value :  5.05493e-06
 Reference value :  5.05753e-06
 Reference value :  5.06074e-06
 Reference value :  5.06530e-06
 Reference value :  5.07182e-06
 Reference value :  5.08257e-06
 Reference value :  5.09878e-06
 Reference value :  5.12072e-06
 Reference value :  5.14499e-06
 Reference value :  5.17546e-06
 Reference value :  5.20584e-06
 Reference value :  5.22829e-06
 Reference value :  5.24981e-06
 Reference value :  5.25010e-06
 Reference value :  5.25011e-06
 Reference value :  5.25013e-06
 Reference value :  5.25017e-06
 Reference value :  5.25020e-06
 Reference value :  5.25020e-06
 Reference value :  5.25020e-06
 Reference value :  5.25021e-06
 Reference value :  5.25021e-06
 Reference value :  5.25022e-06
 Reference value :  5.25025e-06
 Reference value :  5.25030e-06
 Reference value :  5.25039e-06
 Reference value :  5.25059e-06
 Reference value :  5.25094e-06
 Reference value :  5.25136e-06
 Reference value :  5.25188e-06
 Reference value :  5.25249e-06
 Reference value :  5.25325e-06
 Reference value :  5.25413e-06
 Reference value :  5.25527e-06
 Reference value :  5.25622e-06
 Reference value :  5.25719e-06
 Reference value :  5.25828e-06
 Reference value :  5.25984e-06
 Reference value :  5.26144e-06
 Reference value :  5.26385e-06
 Reference value :  5.26699e-06
 Reference value :  5.27247e-06
 Reference value :  5.28343e-06
 Reference value :  5.30245e-06
 Reference value :  5.33986e-06
 Reference value :  5.41012e-06
 Reference value :  5.48858e-06
 Reference value :  5.50000e-06
 Reference value :  5.50001e-06
 Reference value :  5.50003e-06
 Reference value :  5.50007e-06
 Reference value :  5.50010e-06
 Reference value :  5.50010e-06
 Reference value :  5.50011e-06
 Reference value :  5.50013e-06
 Reference value :  5.50016e-06
 Reference value :  5.50023e-06
 Reference value :  5.50036e-06
 Reference value :  5.50053e-06
 Reference value :  5.50087e-06
 Reference value :  5.50144e-06
 Reference value :  5.50221e-06
 Reference value :  5.50284e-06
 Reference value :  5.50351e-06
 Reference value :  5.50420e-06
 Reference value :  5.50516e-06
 Reference value :  5.50613e-06
 Reference value :  5.50706e-06
 Reference value :  5.50856e-06
 Reference value :  5.50992e-06
 Reference value :  5.51121e-06
 Reference value :  5.51258e-06
 Reference value :  5.51385e-06
 Reference value :  5.51534e-06
 Reference value :  5.51685e-06
 Reference value :  5.51855e-06
 Reference value :  5.52195e-06
 Reference value :  5.52875e-06
 Reference value :  5.54042e-06
 Reference value :  5.56377e-06
 Reference value :  5.60794e-06
 Reference value :  5.69628e-06
 Reference value :  5.75010e-06
 Reference value :  5.75011e-06
 Reference value :  5.75013e-06
 Reference value :  5.75017e-06
 Reference value :  5.75020e-06
 Reference value :  5.75020e-06
 Reference value :  5.75020e-06
 Reference value :  5.75021e-06
 Reference value :  5.75021e-06
 Reference value :  5.75022e-06
 Reference value :  5.75025e-06
 Reference value :  5.75030e-06
 Reference value :  5.75039e-06
 Reference value :  5.75059e-06
 Reference value :  5.75094e-06
 Reference value :  5.75136e-06
 Reference value :  5.75188e-06
 Reference value :  5.75249e-06
 Reference value :  5.75325e-06
 Reference value :  5.75413e-06
 Reference value :  5.75531e-06
 Reference value :  5.75623e-06
 Reference value :  5.75720e-06
 Reference value :  5.75822e-06
 Reference value :  5.75934e-06
 Reference value :  5.76057e-06
 Reference value :  5.76185e-06
 Reference value :  5.76325e-06
 Reference value :  5.76538e-06
 Reference value :  5.76770e-06
 Reference value :  5.77133e-06
 Reference value :  5.77704e-06
 Reference value :  5.78848e-06
 Reference value :  5.81134e-06
 Reference value :  5.85699e-06
 Reference value :  5.94829e-06
 Reference value :  6.00000e-06
 Reference value :  6.00001e-06
 Reference value :  6.00003e-06
 Reference value :  6.00007e-06
 Reference value :  6.00010e-06
 Reference value :  6.00010e-06
 Reference value :  6.00011e-06
 Reference value :  6.00013e-06
 Reference value :  6.00016e-06
 Reference value :  6.00023e-06
 Reference value :  6.00036e-06
 Reference value :  6.00053e-06
 Reference value :  6.00087e-06
 Reference value :  6.00144e-06
 Reference value :  6.00221e-06
 Reference value :  6.00288e-06
 Reference value :  6.00356e-06
 Reference value :  6.00427e-06
 Reference value :  6.00514e-06
 Reference value :  6.00590e-06
 Reference value :  6.00673e-06
 Reference value :  6.00781e-06
 Reference value :  6.00879e-06
 Reference value :  6.00970e-06
 Reference value :  6.01079e-06
 Reference value :  6.01200e-06
 Reference value :  6.01389e-06
 Reference value :  6.01525e-06
 Reference value :  6.01673e-06
 Reference value :  6.01812e-06
 Reference value :  6.01974e-06
 Reference value :  6.02117e-06
 Reference value :  6.02236e-06
 Reference value :  6.02361e-06
 Reference value :  6.02486e-06
 Reference value :  6.02618e-06
 Reference value :  6.02791e-06
 Reference value :  6.02953e-06
 Reference value :  6.03224e-06
 Reference value :  6.03483e-06
 Reference value :  6.03788e-06
 Reference value :  6.04041e-06
 Reference value :  6.04288e-06
 Reference value :  6.04561e-06
 Reference value :  6.04820e-06
 Reference value :  6.05329e-06
 Reference value :  6.06000e-06
 Reference value :  6.07263e-06
 Reference value :  6.09025e-06
 Reference value :  6.12515e-06
 Reference value :  6.18335e-06
 Reference value :  6.25010e-06
 Reference value :  6.25011e-06
 Reference value :  6.25013e-06
 Reference value :  6.25017e-06
 Reference value :  6.25020e-06
 Reference value :  6.25020e-06
 Reference value :  6.25020e-06
 Reference value :  6.25021e-06
 Reference value :  6.25021e-06
 Reference value :  6.25022e-06
 Reference value :  6.25025e-06
 Reference value :  6.25030e-06
 Reference value :  6.25039e-06
 Reference value :  6.25059e-06
 Reference value :  6.25094e-06
 Reference value :  6.25136e-06
 Reference value :  6.25188e-06
 Reference value :  6.25249e-06
 Reference value :  6.25326e-06
 Reference value :  6.25413e-06
 Reference value :  6.25532e-06
 Reference value :  6.25623e-06
 Reference value :  6.25718e-06
 Reference value :  6.25825e-06
 Reference value :  6.25982e-06
 Reference value :  6.26127e-06
 Reference value :  6.26378e-06
 Reference value :  6.26677e-06
 Reference value :  6.27230e-06
 Reference value :  6.28336e-06
 Reference value :  6.30235e-06
 Reference value :  6.34034e-06
 Reference value :  6.41091e-06
 Reference value :  6.50000e-06
 Reference value :  6.50001e-06
 Reference value :  6.50003e-06
 Reference value :  6.50007e-06
 Reference value :  6.50010e-06
 Reference value :  6.50010e-06
 Reference value :  6.50011e-06
 Reference value :  6.50013e-06
 Reference value :  6.50016e-06
 Reference value :  6.50023e-06
 Reference value :  6.50036e-06
 Reference value :  6.50053e-06
 Reference value :  6.50087e-06
 Reference value :  6.50145e-06
 Reference value :  6.50221e-06
 Reference value :  6.50288e-06
 Reference value :  6.50356e-06
 Reference value :  6.50426e-06
 Reference value :  6.50524e-06
 Reference value :  6.50619e-06
 Reference value :  6.50715e-06
 Reference value :  6.50859e-06
 Reference value :  6.50997e-06
 Reference value :  6.51126e-06
 Reference value :  6.51264e-06
 Reference value :  6.51391e-06
 Reference value :  6.51540e-06
 Reference value :  6.51692e-06
 Reference value :  6.51863e-06
 Reference value :  6.52205e-06
 Reference value :  6.52889e-06
 Reference value :  6.54050e-06
 Reference value :  6.56371e-06
 Reference value :  6.60735e-06
 Reference value :  6.68908e-06
 Reference value :  6.75010e-06
 Reference value :  6.75011e-06
 Reference value :  6.75013e-06
 Reference value :  6.75017e-06
 Reference value :  6.75020e-06
 Reference value :  6.75020e-06
 Reference value :  6.75020e-06
 Reference value :  6.75021e-06
 Reference value :  6.75021e-06
 Reference value :  6.75022e-06
 Reference value :  6.75025e-06
 Reference value :  6.75030e-06
 Reference value :  6.75039e-06
 Reference value :  6.75059e-06
 Reference value :  6.75094e-06
 Reference value :  6.75136e-06
 Reference value :  6.75188e-06
 Reference value :  6.75249e-06
 Reference value :  6.75326e-06
 Reference value :  6.75413e-06
 Reference value :  6.75531e-06
 Reference value :  6.75623e-06
 Reference value :  6.75720e-06
 Reference value :  6.75822e-06
 Reference value :  6.75934e-06
 Reference value :  6.76057e-06
 Reference value :  6.76300e-06
 Reference value :  6.76569e-06
 Reference value :  6.77034e-06
 Reference value :  6.77892e-06
 Reference value :  6.79608e-06
 Reference value :  6.82937e-06
 Reference value :  6.89556e-06
 Reference value :  7.00000e-06
 Reference value :  7.00001e-06
 Reference value :  7.00003e-06
 Reference value :  7.00007e-06
 Reference value :  7.00010e-06
 Reference value :  7.00010e-06
 Reference value :  7.00011e-06
 Reference value :  7.00013e-06
 Reference value :  7.00016e-06
 Reference value :  7.00023e-06
 Reference value :  7.00036e-06
 Reference value :  7.00053e-06
 Reference value :  7.00087e-06
 Reference value :  7.00145e-06
 Reference value :  7.00221e-06
 Reference value :  7.00288e-06
 Reference value :  7.00356e-06
 Reference value :  7.00427e-06
 Reference value :  7.00525e-06
 Reference value :  7.00603e-06
 Reference value :  7.00685e-06
 Reference value :  7.00784e-06
 Reference value :  7.00870e-06
 Reference value :  7.00964e-06
 Reference value :  7.01062e-06
 Reference value :  7.01183e-06
 Reference value :  7.01358e-06
 Reference value :  7.01607e-06
 Reference value :  7.01835e-06
 Reference value :  7.02069e-06
 Reference value :  7.02243e-06
 Reference value :  7.02407e-06
 Reference value :  7.02578e-06
 Reference value :  7.02755e-06
 Reference value :  7.02949e-06
 Reference value :  7.03169e-06
 Reference value :  7.03413e-06
 Reference value :  7.03884e-06
 Reference value :  7.04515e-06
 Reference value :  7.05523e-06
 Reference value :  7.06494e-06
 Reference value :  7.07957e-06
 Reference value :  7.09470e-06
 Reference value :  7.11371e-06
 Reference value :  7.12551e-06
 Reference value :  7.13870e-06
 Reference value :  7.15844e-06
 Reference value :  7.18003e-06
 Reference value :  7.21452e-06
 Reference value :  7.25010e-06
 Reference value :  7.25011e-06
 Reference value :  7.25013e-06
 Reference value :  7.25017e-06
 Reference value :  7.25020e-06
 Reference value :  7.25020e-06
 Reference value :  7.25020e-06
 Reference value :  7.25021e-06
 Reference value :  7.25021e-06
 Reference value :  7.25022e-06
 Reference value :  7.25025e-06
 Reference value :  7.25030e-06
 Reference value :  7.25039e-06
 Reference value :  7.25059e-06
 Reference value :  7.25094e-06
 Reference value :  7.25136e-06
 Reference value :  7.25188e-06
 Reference value :  7.25249e-06
 Reference value :  7.25326e-06
 Reference value :  7.25414e-06
 Reference value :  7.25514e-06
 Reference value :  7.25601e-06
 Reference value :  7.25692e-06
 Reference value :  7.25792e-06
 Reference value :  7.25925e-06
 Reference value :  7.26065e-06
 Reference value :  7.26304e-06
 Reference value :  7.26556e-06
 Reference value :  7.27006e-06
 Reference value :  7.27906e-06
 Reference value :  7.29639e-06
 Reference value :  7.33037e-06
 Reference value :  7.39483e-06
 Reference value :  7.47967e-06
 Reference value :  7.50000e-06
 Reference value :  7.50001e-06
 Reference value :  7.50003e-06
 Reference value :  7.50007e-06
 Reference value :  7.50010e-06
 Reference value :  7.50010e-06
 Reference value :  7.50011e-06
 Reference value :  7.50013e-06
 Reference value :  7.50016e-06
 Reference value :  7.50023e-06
 Reference value :  7.50036e-06
 Reference value :  7.50053e-06
 Reference value :  7.50087e-06
 Reference value :  7.50149e-06
 Reference value :  7.50218e-06
 Reference value :  7.50276e-06
 Reference value :  7.50340e-06
 Reference value :  7.50408e-06
 Reference value :  7.50502e-06
 Reference value :  7.50592e-06
 Reference value :  7.50688e-06
 Reference value :  7.50816e-06
 Reference value :  7.50957e-06
 Reference value :  7.51108e-06
 Reference value :  7.51245e-06
 Reference value :  7.51388e-06
 Reference value :  7.51544e-06
 Reference value :  7.51706e-06
 Reference value :  7.51919e-06
 Reference value :  7.52199e-06
 Reference value :  7.52707e-06
 Reference value :  7.53575e-06
 Reference value :  7.55182e-06
 Reference value :  7.58142e-06
 Reference value :  7.63655e-06
 Reference value :  7.73797e-06
 Reference value :  7.75010e-06
 Reference value :  7.75011e-06
 Reference value :  7.75013e-06
 Reference value :  7.75017e-06
 Reference value :  7.75020e-06
 Reference value :  7.75020e-06
 Reference value :  7.75020e-06
 Reference value :  7.75021e-06
 Reference value :  7.75021e-06
 Reference value :  7.75022e-06
 Reference value :  7.75025e-06
 Reference value :  7.75029e-06
 Reference value :  7.75039e-06
 Reference value :  7.75058e-06
 Reference value :  7.75092e-06
 Reference value :  7.75135e-06
 Reference value :  7.75187e-06
 Reference value :  7.75248e-06
 Reference value :  7.75324e-06
 Reference value :  7.75412e-06
 Reference value :  7.75529e-06
 Reference value :  7.75622e-06
 Reference value :  7.75719e-06
 Reference value :  7.75821e-06
 Reference value :  7.75932e-06
 Reference value :  7.76055e-06
 Reference value :  7.76183e-06
 Reference value :  7.76323e-06
 Reference value :  7.76536e-06
 Reference value :  7.76767e-06
 Reference value :  7.77133e-06
 Reference value :  7.77707e-06
 Reference value :  7.78857e-06
 Reference value :  7.81156e-06
 Reference value :  7.85437e-06
 Reference value :  7.94000e-06
 Reference value :  8.00000e-06
 Reference value :  8.00001e-06
 Reference value :  8.00003e-06
 Reference value :  8.00007e-06
 Reference value :  8.00010e-06
 Reference value :  8.00010e-06
 Reference value :  8.00011e-06
 Reference value :  8.00013e-06
 Reference value :  8.00016e-06
 Reference value :  8.00023e-06
 Reference value :  8.00036e-06
 Reference value :  8.00053e-06
 Reference value :  8.00087e-06
 Reference value :  8.00149e-06
 Reference value :  8.00218e-06
 Reference value :  8.00280e-06
 Reference value :  8.00345e-06
 Reference value :  8.00414e-06
 Reference value :  8.00497e-06
 Reference value :  8.00584e-06
 Reference value :  8.00671e-06
 Reference value :  8.00765e-06
 Reference value :  8.00876e-06
 Reference value :  8.00976e-06
 Reference value :  8.01079e-06
 Reference value :  8.01217e-06
 Reference value :  8.01383e-06
 Reference value :  8.01515e-06
 Reference value :  8.01663e-06
 Reference value :  8.01822e-06
 Reference value :  8.01995e-06
 Reference value :  8.02204e-06
 Reference value :  8.02420e-06
 Reference value :  8.02702e-06
 Reference value :  8.02997e-06
 Reference value :  8.03327e-06
 Reference value :  8.03706e-06
 Reference value :  8.04015e-06
 Reference value :  8.04335e-06
 Reference value :  8.04699e-06
 Reference value :  8.05108e-06
 Reference value :  8.05543e-06
 Reference value :  8.06412e-06
 Reference value :  8.07875e-06
 Reference value :  8.10229e-06
 Reference value :  8.14658e-06
 Reference value :  8.22140e-06
 Reference value :  8.25010e-06
 Reference value :  8.25011e-06
 Reference value :  8.25013e-06
 Reference value :  8.25017e-06
 Reference value :  8.25020e-06
 Reference value :  8.25020e-06
 Reference value :  8.25020e-06
 Reference value :  8.25021e-06
 Reference value :  8.25021e-06
 Reference value :  8.25022e-06
 Reference value :  8.25025e-06
 Reference value :  8.25030e-06
 Reference value :  8.25039e-06
 Reference value :  8.25059e-06
 Reference value :  8.25098e-06
 Reference value :  8.25139e-06
 Reference value :  8.25189e-06
 Reference value :  8.25250e-06
 Reference value :  8.25330e-06
 Reference value :  8.25418e-06
 Reference value :  8.25526e-06
 Reference value :  8.25645e-06
 Reference value :  8.25784e-06
 Reference value :  8.25942e-06
 Reference value :  8.26126e-06
 Reference value :  8.26400e-06
 Reference value :  8.26675e-06
 Reference value :  8.27190e-06
 Reference value :  8.28222e-06
 Reference value :  8.29894e-06
 Reference value :  8.33229e-06
 Reference value :  8.39097e-06
 Reference value :  8.50000e-06
No. of Data Rows : 1334
ngspice-44 done
