
Note: Compatibility modes selected: hs a


Circuit: ** sch_path: /home/audrey/cace/sar-adc-using-sky130-pdk/runs/run_2025-08-29_17-48-37/parameters/power/run_02/power_consumption.sch

option SCALE: Scale is set to 1e-06 for instance and model parameters
option SCALE: Scale is set to 1e-06 for instance and model parameters
option SCALE: Scale is set to 1e-06 for instance and model parameters
option SCALE: Scale is set to 1e-06 for instance and model parameters
Doing analysis at TEMP = 27.000000 and TNOM = 27.000000

Using KLU as Direct Linear Solver
Operating point simulation skipped by 'uic',
  now using transient initial conditions.
 Reference value :  5.00000e-12
 Reference value :  5.14000e-12
 Reference value :  5.98000e-12
 Reference value :  8.71738e-12
 Reference value :  1.59441e-11
 Reference value :  3.37693e-11
 Reference value :  1.03565e-10
 Reference value :  3.14894e-10
 Reference value :  5.00000e-10
 Reference value :  5.80348e-10
 Reference value :  8.98529e-10
 Reference value :  1.56570e-09
 Reference value :  2.55508e-09
 Reference value :  4.16523e-09
 Reference value :  5.95156e-09
 Reference value :  7.06259e-09
 Reference value :  8.20700e-09
 Reference value :  9.01465e-09
 Reference value :  1.05157e-08
 Reference value :  1.21893e-08
 Reference value :  1.73642e-08
 Reference value :  2.28858e-08
 Reference value :  3.03106e-08
 Reference value :  5.55886e-08
 Reference value :  6.91004e-08
 Reference value :  7.83709e-08
 Reference value :  1.15668e-07
 Reference value :  3.82017e-07
 Reference value :  5.86693e-07
 Reference value :  9.33465e-07
 Reference value :  1.00065e-06
 Reference value :  1.00100e-06
 Reference value :  1.00108e-06
 Reference value :  1.00139e-06
 Reference value :  1.00243e-06
 Reference value :  1.00354e-06
 Reference value :  1.00486e-06
 Reference value :  1.00617e-06
 Reference value :  1.00785e-06
 Reference value :  1.01073e-06
 Reference value :  1.02561e-06
 Reference value :  1.10473e-06
 Reference value :  2.00000e-06
 Reference value :  2.00035e-06
 Reference value :  2.00053e-06
 Reference value :  2.00102e-06
 Reference value :  2.00196e-06
 Reference value :  2.00235e-06
 Reference value :  2.00334e-06
 Reference value :  2.00477e-06
 Reference value :  2.00649e-06
 Reference value :  2.00901e-06
 Reference value :  2.01023e-06
 Reference value :  2.01306e-06
 Reference value :  2.01477e-06
 Reference value :  2.01623e-06
 Reference value :  2.02019e-06
 Reference value :  2.02662e-06
 Reference value :  2.06032e-06
 Reference value :  2.30424e-06
 Reference value :  3.00055e-06
 Reference value :  3.00085e-06
 Reference value :  3.00103e-06
 Reference value :  3.00123e-06
 Reference value :  3.00221e-06
 Reference value :  3.00387e-06
 Reference value :  3.00504e-06
 Reference value :  3.00565e-06
 Reference value :  3.00718e-06
 Reference value :  3.00897e-06
 Reference value :  3.01124e-06
 Reference value :  3.01843e-06
 Reference value :  3.05095e-06
 Reference value :  3.24087e-06
 Reference value :  4.00005e-06
 Reference value :  4.00035e-06
 Reference value :  4.00053e-06
 Reference value :  4.00074e-06
 Reference value :  4.00196e-06
 Reference value :  4.00238e-06
 Reference value :  4.00342e-06
 Reference value :  4.00453e-06
 Reference value :  4.00582e-06
 Reference value :  4.00643e-06
 Reference value :  4.00795e-06
 Reference value :  4.01007e-06
 Reference value :  4.01120e-06
 Reference value :  4.01234e-06
 Reference value :  4.01440e-06
 Reference value :  4.01630e-06
 Reference value :  4.01847e-06
 Reference value :  4.02145e-06
 Reference value :  4.04156e-06
 Reference value :  4.13906e-06
 Reference value :  4.37627e-06
 Reference value :  4.59091e-06
 Reference value :  5.00050e-06
 Reference value :  5.00065e-06
 Reference value :  5.00103e-06
 Reference value :  5.00149e-06
 Reference value :  5.00221e-06
 Reference value :  5.00325e-06
 Reference value :  5.00441e-06
 Reference value :  5.00502e-06
 Reference value :  5.00622e-06
 Reference value :  5.00960e-06
 Reference value :  5.03619e-06
 Reference value :  5.23098e-06
 Reference value :  6.00005e-06
 Reference value :  6.00050e-06
 Reference value :  6.00060e-06
 Reference value :  6.00151e-06
 Reference value :  6.00235e-06
 Reference value :  6.00334e-06
 Reference value :  6.00469e-06
 Reference value :  6.00643e-06
 Reference value :  6.00863e-06
 Reference value :  6.01075e-06
 Reference value :  6.01588e-06
 Reference value :  6.05414e-06
 Reference value :  6.26615e-06
 Reference value :  7.00050e-06
 Reference value :  7.00065e-06
 Reference value :  7.00100e-06
 Reference value :  7.00110e-06
 Reference value :  7.00175e-06
 Reference value :  7.00263e-06
 Reference value :  7.00387e-06
 Reference value :  7.00441e-06
 Reference value :  7.00564e-06
 Reference value :  7.00711e-06
 Reference value :  7.00984e-06
 Reference value :  7.01491e-06
 Reference value :  7.03312e-06
 Reference value :  7.21286e-06
 Reference value :  8.00000e-06
 Reference value :  8.00015e-06
 Reference value :  8.00050e-06
 Reference value :  8.00074e-06
 Reference value :  8.00151e-06
 Reference value :  8.00238e-06
 Reference value :  8.00342e-06
 Reference value :  8.00453e-06
 Reference value :  8.00582e-06
 Reference value :  8.00643e-06
 Reference value :  8.00795e-06
 Reference value :  8.01007e-06
 Reference value :  8.01234e-06
 Reference value :  8.01439e-06
 Reference value :  8.01629e-06
 Reference value :  8.01845e-06
 Reference value :  8.02141e-06
 Reference value :  8.04145e-06
 Reference value :  8.08451e-06
 Reference value :  8.14788e-06
 Reference value :  8.16859e-06
 Reference value :  8.18444e-06
 Reference value :  8.21216e-06
 Reference value :  8.25672e-06
 Reference value :  8.28355e-06
 Reference value :  8.29130e-06
 Reference value :  8.30718e-06
 Reference value :  8.32227e-06
 Reference value :  8.36499e-06
 Reference value :  8.42617e-06
 Reference value :  8.65010e-06
 Reference value :  9.00055e-06
 Reference value :  9.00100e-06
 Reference value :  9.00123e-06
 Reference value :  9.00175e-06
 Reference value :  9.00263e-06
 Reference value :  9.00439e-06
 Reference value :  9.00553e-06
 Reference value :  9.00707e-06
 Reference value :  9.01159e-06
 Reference value :  9.05979e-06
 Reference value :  9.41839e-06
 Reference value :  1.00000e-05
 Reference value :  1.00003e-05
 Reference value :  1.00005e-05
 Reference value :  1.00007e-05
 Reference value :  1.00015e-05
 Reference value :  1.00024e-05
 Reference value :  1.00033e-05
 Reference value :  1.00047e-05
 Reference value :  1.00064e-05
 Reference value :  1.00086e-05
 Reference value :  1.00108e-05
 Reference value :  1.00134e-05
 Reference value :  1.00358e-05
 Reference value :  1.01490e-05
 Reference value :  1.08432e-05
 Reference value :  1.10005e-05
 Reference value :  1.10008e-05
 Reference value :  1.10010e-05
 Reference value :  1.10012e-05
 Reference value :  1.10017e-05
 Reference value :  1.10026e-05
 Reference value :  1.10039e-05
 Reference value :  1.10044e-05
 Reference value :  1.10056e-05
 Reference value :  1.10071e-05
 Reference value :  1.10089e-05
 Reference value :  1.10111e-05
 Reference value :  1.10242e-05
 Reference value :  1.10483e-05
 Reference value :  1.13989e-05
 Reference value :  1.20001e-05
 Reference value :  1.20005e-05
 Reference value :  1.20010e-05
 Reference value :  1.20024e-05
 Reference value :  1.20034e-05
 Reference value :  1.20045e-05
 Reference value :  1.20058e-05
 Reference value :  1.20071e-05
 Reference value :  1.20080e-05
 Reference value :  1.20101e-05
 Reference value :  1.20112e-05
 Reference value :  1.20123e-05
 Reference value :  1.20135e-05
 Reference value :  1.20144e-05
 Reference value :  1.20163e-05
 Reference value :  1.20184e-05
 Reference value :  1.20232e-05
 Reference value :  1.20379e-05
 Reference value :  1.20433e-05
 Reference value :  1.20470e-05
 Reference value :  1.20530e-05
 Reference value :  1.20595e-05
 Reference value :  1.20685e-05
 Reference value :  1.20812e-05
 Reference value :  1.21043e-05
 Reference value :  1.21582e-05
 Reference value :  1.22172e-05
 Reference value :  1.25310e-05
 Reference value :  1.30005e-05
 Reference value :  1.30009e-05
 Reference value :  1.30010e-05
 Reference value :  1.30012e-05
 Reference value :  1.30017e-05
 Reference value :  1.30032e-05
 Reference value :  1.30044e-05
 Reference value :  1.30057e-05
 Reference value :  1.30073e-05
 Reference value :  1.30122e-05
 Reference value :  1.30680e-05
 Reference value :  1.39458e-05
 Reference value :  1.40002e-05
 Reference value :  1.40005e-05
 Reference value :  1.40010e-05
 Reference value :  1.40020e-05
 Reference value :  1.40034e-05
 Reference value :  1.40046e-05
 Reference value :  1.40063e-05
 Reference value :  1.40082e-05
 Reference value :  1.40112e-05
 Reference value :  1.40147e-05
 Reference value :  1.40260e-05
 Reference value :  1.40648e-05
 Reference value :  1.42064e-05
 Reference value :  1.47728e-05
 Reference value :  1.50005e-05
 Reference value :  1.50009e-05
 Reference value :  1.50011e-05
 Reference value :  1.50017e-05
 Reference value :  1.50032e-05
 Reference value :  1.50044e-05
 Reference value :  1.50056e-05
 Reference value :  1.50071e-05
 Reference value :  1.50117e-05
 Reference value :  1.50356e-05
 Reference value :  1.52271e-05
 Reference value :  1.60000e-05
 Reference value :  1.60001e-05
 Reference value :  1.60005e-05
 Reference value :  1.60006e-05
 Reference value :  1.60015e-05
 Reference value :  1.60024e-05
 Reference value :  1.60029e-05
 Reference value :  1.60040e-05
 Reference value :  1.60045e-05
 Reference value :  1.60051e-05
 Reference value :  1.60058e-05
 Reference value :  1.60064e-05
 Reference value :  1.60078e-05
 Reference value :  1.60101e-05
 Reference value :  1.60116e-05
 Reference value :  1.60131e-05
 Reference value :  1.60142e-05
 Reference value :  1.60164e-05
 Reference value :  1.60175e-05
 Reference value :  1.60198e-05
 Reference value :  1.60215e-05
 Reference value :  1.60267e-05
 Reference value :  1.60413e-05
 Reference value :  1.60790e-05
 Reference value :  1.61842e-05
 Reference value :  1.63525e-05
 Reference value :  1.70006e-05
 Reference value :  1.70007e-05
 Reference value :  1.70009e-05
 Reference value :  1.70010e-05
 Reference value :  1.70010e-05
 Reference value :  1.70012e-05
 Reference value :  1.70014e-05
 Reference value :  1.70021e-05
 Reference value :  1.70025e-05
 Reference value :  1.70037e-05
 Reference value :  1.70046e-05
 Reference value :  1.70052e-05
 Reference value :  1.70065e-05
 Reference value :  1.70074e-05
 Reference value :  1.70121e-05
 Reference value :  1.70240e-05
 Reference value :  1.70601e-05
 Reference value :  1.71797e-05
 Reference value :  1.73391e-05
 Reference value :  1.80001e-05
 Reference value :  1.80004e-05
 Reference value :  1.80005e-05
 Reference value :  1.80007e-05
 Reference value :  1.80010e-05
 Reference value :  1.80021e-05
 Reference value :  1.80031e-05
 Reference value :  1.80044e-05
 Reference value :  1.80068e-05
 Reference value :  1.80075e-05
 Reference value :  1.80093e-05
 Reference value :  1.80114e-05
 Reference value :  1.80150e-05
 Reference value :  1.80439e-05
 Reference value :  1.81354e-05
 Reference value :  1.84960e-05
 Reference value :  1.90005e-05
 Reference value :  1.90007e-05
 Reference value :  1.90010e-05
 Reference value :  1.90011e-05
 Reference value :  1.90014e-05
 Reference value :  1.90017e-05
 Reference value :  1.90025e-05
 Reference value :  1.90031e-05
 Reference value :  1.90046e-05
 Reference value :  1.90051e-05
 Reference value :  1.90065e-05
 Reference value :  1.90083e-05
 Reference value :  1.90120e-05
 Reference value :  1.90221e-05
 Reference value :  1.90532e-05
 Reference value :  1.91593e-05
 Reference value :  1.95786e-05
 Reference value :  2.00000e-05
 Reference value :  2.00001e-05
 Reference value :  2.00002e-05
 Reference value :  2.00005e-05
 Reference value :  2.00005e-05
 Reference value :  2.00007e-05
 Reference value :  2.00010e-05
 Reference value :  2.00015e-05
 Reference value :  2.00021e-05
 Reference value :  2.00026e-05
 Reference value :  2.00031e-05
 Reference value :  2.00044e-05
 Reference value :  2.00049e-05
 Reference value :  2.00060e-05
 Reference value :  2.00066e-05
 Reference value :  2.00081e-05
 Reference value :  2.00112e-05
 Reference value :  2.00125e-05
 Reference value :  2.00139e-05
 Reference value :  2.00149e-05
 Reference value :  2.00160e-05
 Reference value :  2.00183e-05
 Reference value :  2.00212e-05
 Reference value :  2.00262e-05
 Reference value :  2.00314e-05
 Reference value :  2.00569e-05
 Reference value :  2.00928e-05
 Reference value :  2.01498e-05
 Reference value :  2.02837e-05
 Reference value :  2.07122e-05
 Reference value :  2.10005e-05
 Reference value :  2.10008e-05
 Reference value :  2.10010e-05
 Reference value :  2.10011e-05
 Reference value :  2.10014e-05
 Reference value :  2.10025e-05
 Reference value :  2.10037e-05
 Reference value :  2.10046e-05
 Reference value :  2.10052e-05
 Reference value :  2.10065e-05
 Reference value :  2.10074e-05
 Reference value :  2.10100e-05
 Reference value :  2.10165e-05
 Reference value :  2.10363e-05
 Reference value :  2.10989e-05
 Reference value :  2.13338e-05
 Reference value :  2.20000e-05
 Reference value :  2.20001e-05
 Reference value :  2.20005e-05
 Reference value :  2.20005e-05
 Reference value :  2.20007e-05
 Reference value :  2.20015e-05
 Reference value :  2.20021e-05
 Reference value :  2.20026e-05
 Reference value :  2.20037e-05
 Reference value :  2.20044e-05
 Reference value :  2.20058e-05
 Reference value :  2.20068e-05
 Reference value :  2.20076e-05
 Reference value :  2.20084e-05
 Reference value :  2.20093e-05
 Reference value :  2.20103e-05
 Reference value :  2.20127e-05
 Reference value :  2.20194e-05
 Reference value :  2.20443e-05
 Reference value :  2.21369e-05
 Reference value :  2.25018e-05
 Reference value :  2.29883e-05
 Reference value :  2.30005e-05
 Reference value :  2.30005e-05
 Reference value :  2.30008e-05
 Reference value :  2.30010e-05
 Reference value :  2.30010e-05
 Reference value :  2.30012e-05
 Reference value :  2.30014e-05
 Reference value :  2.30017e-05
 Reference value :  2.30021e-05
 Reference value :  2.30025e-05
 Reference value :  2.30031e-05
 Reference value :  2.30037e-05
 Reference value :  2.30051e-05
 Reference value :  2.30058e-05
 Reference value :  2.30065e-05
 Reference value :  2.30072e-05
 Reference value :  2.30083e-05
 Reference value :  2.30153e-05
 Reference value :  2.30514e-05
 Reference value :  2.31501e-05
 Reference value :  2.40000e-05
 Reference value :  2.40004e-05
 Reference value :  2.40006e-05
 Reference value :  2.40015e-05
 Reference value :  2.40026e-05
 Reference value :  2.40037e-05
 Reference value :  2.40049e-05
 Reference value :  2.40060e-05
 Reference value :  2.40074e-05
 Reference value :  2.40096e-05
 Reference value :  2.40125e-05
 Reference value :  2.40149e-05
 Reference value :  2.40171e-05
 Reference value :  2.40195e-05
 Reference value :  2.40227e-05
 Reference value :  2.40305e-05
 Reference value :  2.40427e-05
 Reference value :  2.40473e-05
 Reference value :  2.40573e-05
 Reference value :  2.40763e-05
 Reference value :  2.41129e-05
 Reference value :  2.42287e-05
 Reference value :  2.43529e-05
 Reference value :  2.47006e-05
 Reference value :  2.50006e-05
 Reference value :  2.50010e-05
 Reference value :  2.50011e-05
 Reference value :  2.50014e-05
 Reference value :  2.50021e-05
 Reference value :  2.50037e-05
 Reference value :  2.50050e-05
 Reference value :  2.50073e-05
 Reference value :  2.50119e-05
 Reference value :  2.50574e-05
 Reference value :  2.55826e-05
 Reference value :  2.60002e-05
 Reference value :  2.60005e-05
 Reference value :  2.60007e-05
 Reference value :  2.60015e-05
 Reference value :  2.60021e-05
 Reference value :  2.60026e-05
 Reference value :  2.60038e-05
 Reference value :  2.60059e-05
 Reference value :  2.60077e-05
 Reference value :  2.60085e-05
 Reference value :  2.60094e-05
 Reference value :  2.60113e-05
 Reference value :  2.60148e-05
 Reference value :  2.60281e-05
 Reference value :  2.60456e-05
 Reference value :  2.60801e-05
 Reference value :  2.62875e-05
 Reference value :  2.70005e-05
 Reference value :  2.70007e-05
 Reference value :  2.70010e-05
 Reference value :  2.70011e-05
 Reference value :  2.70012e-05
 Reference value :  2.70014e-05
 Reference value :  2.70017e-05
 Reference value :  2.70021e-05
 Reference value :  2.70025e-05
 Reference value :  2.70031e-05
 Reference value :  2.70046e-05
 Reference value :  2.70051e-05
 Reference value :  2.70065e-05
 Reference value :  2.70072e-05
 Reference value :  2.70081e-05
 Reference value :  2.70090e-05
 Reference value :  2.70099e-05
 Reference value :  2.70128e-05
 Reference value :  2.70147e-05
 Reference value :  2.70234e-05
 Reference value :  2.70462e-05
 Reference value :  2.71917e-05
 Reference value :  2.80000e-05
 Reference value :  2.80000e-05
 Reference value :  2.80001e-05
 Reference value :  2.80004e-05
 Reference value :  2.80005e-05
 Reference value :  2.80005e-05
 Reference value :  2.80006e-05
 Reference value :  2.80007e-05
 Reference value :  2.80010e-05
 Reference value :  2.80015e-05
 Reference value :  2.80021e-05
 Reference value :  2.80026e-05
 Reference value :  2.80031e-05
 Reference value :  2.80037e-05
 Reference value :  2.80049e-05
 Reference value :  2.80055e-05
 Reference value :  2.80060e-05
 Reference value :  2.80066e-05
 Reference value :  2.80081e-05
 Reference value :  2.80103e-05
 Reference value :  2.80113e-05
 Reference value :  2.80123e-05
 Reference value :  2.80136e-05
 Reference value :  2.80143e-05
 Reference value :  2.80152e-05
 Reference value :  2.80163e-05
 Reference value :  2.80174e-05
 Reference value :  2.80185e-05
 Reference value :  2.80198e-05
 Reference value :  2.80215e-05
 Reference value :  2.80267e-05
 Reference value :  2.80372e-05
 Reference value :  2.80702e-05
 Reference value :  2.81659e-05
 Reference value :  2.86034e-05
 Reference value :  2.90006e-05
 Reference value :  2.90009e-05
 Reference value :  2.90010e-05
 Reference value :  2.90010e-05
 Reference value :  2.90011e-05
 Reference value :  2.90012e-05
 Reference value :  2.90014e-05
 Reference value :  2.90021e-05
 Reference value :  2.90031e-05
 Reference value :  2.90037e-05
 Reference value :  2.90046e-05
 Reference value :  2.90051e-05
 Reference value :  2.90065e-05
 Reference value :  2.90082e-05
 Reference value :  2.90120e-05
 Reference value :  2.90235e-05
 Reference value :  2.90583e-05
 Reference value :  2.91738e-05
 Reference value :  3.00000e-05
 Reference value :  3.00002e-05
 Reference value :  3.00005e-05
 Reference value :  3.00006e-05
 Reference value :  3.00010e-05
 Reference value :  3.00015e-05
 Reference value :  3.00021e-05
 Reference value :  3.00026e-05
 Reference value :  3.00031e-05
 Reference value :  3.00037e-05
 Reference value :  3.00044e-05
 Reference value :  3.00052e-05
 Reference value :  3.00070e-05
 Reference value :  3.00077e-05
 Reference value :  3.00085e-05
 Reference value :  3.00093e-05
 Reference value :  3.00113e-05
 Reference value :  3.00148e-05
 Reference value :  3.00285e-05
 Reference value :  3.00834e-05
 Reference value :  3.03032e-05
 Reference value :  3.10005e-05
 Reference value :  3.10008e-05
 Reference value :  3.10010e-05
 Reference value :  3.10012e-05
 Reference value :  3.10014e-05
 Reference value :  3.10021e-05
 Reference value :  3.10031e-05
 Reference value :  3.10037e-05
 Reference value :  3.10046e-05
 Reference value :  3.10051e-05
 Reference value :  3.10058e-05
 Reference value :  3.10073e-05
 Reference value :  3.10081e-05
 Reference value :  3.10090e-05
 Reference value :  3.10099e-05
 Reference value :  3.10128e-05
 Reference value :  3.10180e-05
 Reference value :  3.10319e-05
 Reference value :  3.10695e-05
 Reference value :  3.11971e-05
 Reference value :  3.13622e-05
 Reference value :  3.16825e-05
 Reference value :  3.20000e-05
 Reference value :  3.20001e-05
 Reference value :  3.20003e-05
 Reference value :  3.20005e-05
 Reference value :  3.20007e-05
 Reference value :  3.20015e-05
 Reference value :  3.20026e-05
 Reference value :  3.20031e-05
 Reference value :  3.20037e-05
 Reference value :  3.20044e-05
 Reference value :  3.20049e-05
 Reference value :  3.20060e-05
 Reference value :  3.20066e-05
 Reference value :  3.20081e-05
 Reference value :  3.20089e-05
 Reference value :  3.20105e-05
 Reference value :  3.20113e-05
 Reference value :  3.20122e-05
 Reference value :  3.20133e-05
 Reference value :  3.20160e-05
 Reference value :  3.20173e-05
 Reference value :  3.20258e-05
 Reference value :  3.20469e-05
 Reference value :  3.21071e-05
 Reference value :  3.21187e-05
 Reference value :  3.21496e-05
 Reference value :  3.21690e-05
 Reference value :  3.22146e-05
 Reference value :  3.22935e-05
 Reference value :  3.25381e-05
 Reference value :  3.30005e-05
 Reference value :  3.30007e-05
 Reference value :  3.30010e-05
 Reference value :  3.30011e-05
 Reference value :  3.30015e-05
 Reference value :  3.30021e-05
 Reference value :  3.30032e-05
 Reference value :  3.30046e-05
 Reference value :  3.30056e-05
 Reference value :  3.30074e-05
 Reference value :  3.30101e-05
 Reference value :  3.30163e-05
 Reference value :  3.30351e-05
 Reference value :  3.30970e-05
 Reference value :  3.33446e-05
 Reference value :  3.40000e-05
No. of Data Rows : 1262
ngspice-44 done
