
Note: Compatibility modes selected: hs a


Circuit: ** sch_path: /home/samantha/cace/sar-adc-using-sky130-pdk/runs/run_2025-08-20_23-09-23/parameters/power/run_01/transient.sch

option SCALE: Scale is set to 1e-06 for instance and model parameters
option SCALE: Scale is set to 1e-06 for instance and model parameters
option SCALE: Scale is set to 1e-06 for instance and model parameters
option SCALE: Scale is set to 1e-06 for instance and model parameters
Doing analysis at TEMP = 27.000000 and TNOM = 27.000000

Using KLU as Direct Linear Solver
Operating point simulation skipped by 'uic',
  now using transient initial conditions.
 Reference value :  5.00000e-12
 Reference value :  5.14000e-12
 Reference value :  5.42000e-12
 Reference value :  5.98000e-12
 Reference value :  8.69127e-12
 Reference value :  1.61046e-11
 Reference value :  3.46571e-11
 Reference value :  1.08867e-10
 Reference value :  3.55616e-10
 Reference value :  5.00000e-10
 Reference value :  5.15235e-10
 Reference value :  6.06647e-10
 Reference value :  9.72295e-10
 Reference value :  1.27134e-09
 Reference value :  1.62938e-09
 Reference value :  2.15682e-09
 Reference value :  3.51371e-09
 Reference value :  5.49244e-09
 Reference value :  6.82893e-09
 Reference value :  7.78999e-09
 Reference value :  8.72047e-09
 Reference value :  9.62970e-09
 Reference value :  1.18844e-08
 Reference value :  1.36632e-08
 Reference value :  1.80647e-08
 Reference value :  2.03155e-08
 Reference value :  2.31084e-08
 Reference value :  2.54102e-08
 Reference value :  3.11480e-08
 Reference value :  3.40262e-08
 Reference value :  3.76794e-08
 Reference value :  4.25134e-08
 Reference value :  4.57149e-08
 Reference value :  4.94000e-08
 Reference value :  5.40298e-08
 Reference value :  5.88636e-08
 Reference value :  6.50713e-08
 Reference value :  7.02899e-08
 Reference value :  8.26712e-08
 Reference value :  1.14631e-07
 Reference value :  2.11772e-07
 Reference value :  3.23449e-07
 Reference value :  5.21733e-07
 Reference value :  5.65199e-07
 Reference value :  8.25996e-07
 Reference value :  1.00055e-06
 Reference value :  1.00065e-06
 Reference value :  1.00085e-06
 Reference value :  1.00100e-06
 Reference value :  1.00109e-06
 Reference value :  1.00121e-06
 Reference value :  1.00139e-06
 Reference value :  1.00197e-06
 Reference value :  1.00242e-06
 Reference value :  1.00283e-06
 Reference value :  1.00344e-06
 Reference value :  1.00427e-06
 Reference value :  1.00484e-06
 Reference value :  1.00549e-06
 Reference value :  1.00622e-06
 Reference value :  1.00787e-06
 Reference value :  1.00926e-06
 Reference value :  1.01366e-06
 Reference value :  1.02595e-06
 Reference value :  1.04163e-06
 Reference value :  1.12475e-06
 Reference value :  1.45639e-06
 Reference value :  2.00000e-06
 Reference value :  2.00005e-06
 Reference value :  2.00015e-06
 Reference value :  2.00050e-06
 Reference value :  2.00060e-06
 Reference value :  2.00102e-06
 Reference value :  2.00155e-06
 Reference value :  2.00202e-06
 Reference value :  2.00245e-06
 Reference value :  2.00355e-06
 Reference value :  2.00422e-06
 Reference value :  2.00486e-06
 Reference value :  2.00567e-06
 Reference value :  2.00791e-06
 Reference value :  2.00917e-06
 Reference value :  2.01053e-06
 Reference value :  2.01177e-06
 Reference value :  2.01367e-06
 Reference value :  2.01528e-06
 Reference value :  2.01694e-06
 Reference value :  2.02208e-06
 Reference value :  2.03272e-06
 Reference value :  2.04411e-06
 Reference value :  2.09255e-06
 Reference value :  2.27451e-06
 Reference value :  2.99526e-06
 Reference value :  3.00050e-06
 Reference value :  3.00055e-06
 Reference value :  3.00065e-06
 Reference value :  3.00085e-06
 Reference value :  3.00100e-06
 Reference value :  3.00103e-06
 Reference value :  3.00110e-06
 Reference value :  3.00145e-06
 Reference value :  3.00213e-06
 Reference value :  3.00261e-06
 Reference value :  3.00310e-06
 Reference value :  3.00377e-06
 Reference value :  3.00449e-06
 Reference value :  3.00502e-06
 Reference value :  3.00564e-06
 Reference value :  3.00629e-06
 Reference value :  3.00706e-06
 Reference value :  3.00790e-06
 Reference value :  3.00871e-06
 Reference value :  3.00970e-06
 Reference value :  3.01084e-06
 Reference value :  3.01259e-06
 Reference value :  3.01781e-06
 Reference value :  3.03060e-06
 Reference value :  3.06255e-06
 Reference value :  3.09330e-06
 Reference value :  3.24254e-06
 Reference value :  3.44063e-06
 Reference value :  4.00000e-06
 Reference value :  4.00005e-06
 Reference value :  4.00015e-06
 Reference value :  4.00035e-06
 Reference value :  4.00050e-06
 Reference value :  4.00060e-06
 Reference value :  4.00102e-06
 Reference value :  4.00202e-06
 Reference value :  4.00247e-06
 Reference value :  4.00351e-06
 Reference value :  4.00461e-06
 Reference value :  4.00518e-06
 Reference value :  4.00564e-06
 Reference value :  4.00683e-06
 Reference value :  4.00848e-06
 Reference value :  4.00979e-06
 Reference value :  4.01067e-06
 Reference value :  4.01280e-06
 Reference value :  4.01371e-06
 Reference value :  4.01559e-06
 Reference value :  4.01661e-06
 Reference value :  4.01878e-06
 Reference value :  4.01998e-06
 Reference value :  4.02391e-06
 Reference value :  4.03521e-06
 Reference value :  4.04659e-06
 Reference value :  4.11486e-06
 Reference value :  4.25020e-06
 Reference value :  4.49593e-06
 Reference value :  4.77935e-06
 Reference value :  5.00055e-06
 Reference value :  5.00085e-06
 Reference value :  5.00103e-06
 Reference value :  5.00110e-06
 Reference value :  5.00145e-06
 Reference value :  5.00213e-06
 Reference value :  5.00261e-06
 Reference value :  5.00377e-06
 Reference value :  5.00449e-06
 Reference value :  5.00502e-06
 Reference value :  5.00564e-06
 Reference value :  5.00622e-06
 Reference value :  5.00701e-06
 Reference value :  5.00785e-06
 Reference value :  5.01169e-06
 Reference value :  5.02096e-06
 Reference value :  5.03279e-06
 Reference value :  5.05645e-06
 Reference value :  5.10376e-06
 Reference value :  5.19838e-06
 Reference value :  5.38763e-06
 Reference value :  5.76613e-06
 Reference value :  6.00005e-06
 Reference value :  6.00015e-06
 Reference value :  6.00035e-06
 Reference value :  6.00050e-06
 Reference value :  6.00060e-06
 Reference value :  6.00074e-06
 Reference value :  6.00102e-06
 Reference value :  6.00155e-06
 Reference value :  6.00245e-06
 Reference value :  6.00354e-06
 Reference value :  6.00419e-06
 Reference value :  6.00555e-06
 Reference value :  6.00645e-06
 Reference value :  6.00710e-06
 Reference value :  6.00788e-06
 Reference value :  6.00878e-06
 Reference value :  6.01069e-06
 Reference value :  6.01186e-06
 Reference value :  6.01546e-06
 Reference value :  6.02446e-06
 Reference value :  6.04999e-06
 Reference value :  6.08174e-06
 Reference value :  6.27226e-06
 Reference value :  7.00050e-06
 Reference value :  7.00055e-06
 Reference value :  7.00065e-06
 Reference value :  7.00085e-06
 Reference value :  7.00100e-06
 Reference value :  7.00103e-06
 Reference value :  7.00124e-06
 Reference value :  7.00145e-06
 Reference value :  7.00168e-06
 Reference value :  7.00213e-06
 Reference value :  7.00261e-06
 Reference value :  7.00377e-06
 Reference value :  7.00448e-06
 Reference value :  7.00502e-06
 Reference value :  7.00628e-06
 Reference value :  7.00712e-06
 Reference value :  7.00879e-06
 Reference value :  7.01094e-06
 Reference value :  7.01477e-06
 Reference value :  7.02339e-06
 Reference value :  7.04392e-06
 Reference value :  7.09457e-06
 Reference value :  7.25324e-06
 Reference value :  7.88788e-06
 Reference value :  8.00005e-06
 Reference value :  8.00015e-06
 Reference value :  8.00050e-06
 Reference value :  8.00053e-06
 Reference value :  8.00074e-06
 Reference value :  8.00102e-06
 Reference value :  8.00155e-06
 Reference value :  8.00202e-06
 Reference value :  8.00247e-06
 Reference value :  8.00297e-06
 Reference value :  8.00351e-06
 Reference value :  8.00461e-06
 Reference value :  8.00564e-06
 Reference value :  8.00683e-06
 Reference value :  8.00757e-06
 Reference value :  8.00848e-06
 Reference value :  8.01067e-06
 Reference value :  8.01281e-06
 Reference value :  8.01371e-06
 Reference value :  8.01461e-06
 Reference value :  8.01559e-06
 Reference value :  8.01762e-06
 Reference value :  8.01878e-06
 Reference value :  8.02189e-06
 Reference value :  8.02790e-06
 Reference value :  8.04638e-06
 Reference value :  8.06890e-06
 Reference value :  8.09937e-06
 Reference value :  8.14972e-06
 Reference value :  8.23257e-06
 Reference value :  8.37074e-06
 Reference value :  8.65460e-06
 Reference value :  8.88951e-06
 Reference value :  9.00050e-06
 Reference value :  9.00055e-06
 Reference value :  9.00065e-06
 Reference value :  9.00085e-06
 Reference value :  9.00100e-06
 Reference value :  9.00103e-06
 Reference value :  9.00110e-06
 Reference value :  9.00124e-06
 Reference value :  9.00145e-06
 Reference value :  9.00167e-06
 Reference value :  9.00213e-06
 Reference value :  9.00261e-06
 Reference value :  9.00310e-06
 Reference value :  9.00377e-06
 Reference value :  9.00449e-06
 Reference value :  9.00502e-06
 Reference value :  9.00564e-06
 Reference value :  9.00622e-06
 Reference value :  9.00701e-06
 Reference value :  9.00785e-06
 Reference value :  9.00952e-06
 Reference value :  9.01505e-06
 Reference value :  9.05635e-06
 Reference value :  9.38633e-06
 Reference value :  1.00000e-05
 Reference value :  1.00001e-05
 Reference value :  1.00005e-05
 Reference value :  1.00006e-05
 Reference value :  1.00010e-05
 Reference value :  1.00015e-05
 Reference value :  1.00020e-05
 Reference value :  1.00025e-05
 Reference value :  1.00030e-05
 Reference value :  1.00035e-05
 Reference value :  1.00042e-05
 Reference value :  1.00048e-05
 Reference value :  1.00056e-05
 Reference value :  1.00064e-05
 Reference value :  1.00071e-05
 Reference value :  1.00079e-05
 Reference value :  1.00088e-05
 Reference value :  1.00098e-05
 Reference value :  1.00107e-05
 Reference value :  1.00118e-05
 Reference value :  1.00131e-05
 Reference value :  1.00154e-05
 Reference value :  1.00187e-05
 Reference value :  1.00243e-05
 Reference value :  1.00339e-05
 Reference value :  1.00495e-05
 Reference value :  1.00808e-05
 Reference value :  1.01433e-05
 Reference value :  1.02683e-05
 Reference value :  1.05185e-05
 Reference value :  1.10005e-05
 Reference value :  1.10005e-05
 Reference value :  1.10006e-05
 Reference value :  1.10008e-05
 Reference value :  1.10010e-05
 Reference value :  1.10010e-05
 Reference value :  1.10011e-05
 Reference value :  1.10012e-05
 Reference value :  1.10014e-05
 Reference value :  1.10017e-05
 Reference value :  1.10021e-05
 Reference value :  1.10026e-05
 Reference value :  1.10031e-05
 Reference value :  1.10038e-05
 Reference value :  1.10045e-05
 Reference value :  1.10050e-05
 Reference value :  1.10056e-05
 Reference value :  1.10063e-05
 Reference value :  1.10071e-05
 Reference value :  1.10079e-05
 Reference value :  1.10088e-05
 Reference value :  1.10097e-05
 Reference value :  1.10109e-05
 Reference value :  1.10127e-05
 Reference value :  1.10180e-05
 Reference value :  1.10311e-05
 Reference value :  1.10635e-05
 Reference value :  1.11475e-05
 Reference value :  1.14648e-05
 Reference value :  1.18879e-05
 Reference value :  1.20000e-05
 Reference value :  1.20001e-05
 Reference value :  1.20003e-05
 Reference value :  1.20005e-05
 Reference value :  1.20005e-05
 Reference value :  1.20006e-05
 Reference value :  1.20010e-05
 Reference value :  1.20015e-05
 Reference value :  1.20020e-05
 Reference value :  1.20025e-05
 Reference value :  1.20035e-05
 Reference value :  1.20041e-05
 Reference value :  1.20046e-05
 Reference value :  1.20052e-05
 Reference value :  1.20056e-05
 Reference value :  1.20068e-05
 Reference value :  1.20085e-05
 Reference value :  1.20107e-05
 Reference value :  1.20128e-05
 Reference value :  1.20137e-05
 Reference value :  1.20146e-05
 Reference value :  1.20156e-05
 Reference value :  1.20166e-05
 Reference value :  1.20176e-05
 Reference value :  1.20188e-05
 Reference value :  1.20199e-05
 Reference value :  1.20238e-05
 Reference value :  1.20348e-05
 Reference value :  1.20418e-05
 Reference value :  1.20542e-05
 Reference value :  1.20576e-05
 Reference value :  1.20609e-05
 Reference value :  1.20687e-05
 Reference value :  1.20754e-05
 Reference value :  1.20834e-05
 Reference value :  1.20920e-05
 Reference value :  1.21108e-05
 Reference value :  1.21433e-05
 Reference value :  1.22001e-05
 Reference value :  1.22300e-05
 Reference value :  1.22719e-05
 Reference value :  1.24175e-05
 Reference value :  1.28192e-05
 Reference value :  1.30006e-05
 Reference value :  1.30007e-05
 Reference value :  1.30009e-05
 Reference value :  1.30010e-05
 Reference value :  1.30011e-05
 Reference value :  1.30014e-05
 Reference value :  1.30021e-05
 Reference value :  1.30026e-05
 Reference value :  1.30038e-05
 Reference value :  1.30045e-05
 Reference value :  1.30050e-05
 Reference value :  1.30063e-05
 Reference value :  1.30070e-05
 Reference value :  1.30118e-05
 Reference value :  1.30212e-05
 Reference value :  1.30570e-05
 Reference value :  1.31994e-05
 Reference value :  1.37690e-05
 Reference value :  1.40000e-05
 Reference value :  1.40004e-05
 Reference value :  1.40005e-05
 Reference value :  1.40007e-05
 Reference value :  1.40015e-05
 Reference value :  1.40025e-05
 Reference value :  1.40035e-05
 Reference value :  1.40041e-05
 Reference value :  1.40047e-05
 Reference value :  1.40062e-05
 Reference value :  1.40068e-05
 Reference value :  1.40076e-05
 Reference value :  1.40086e-05
 Reference value :  1.40095e-05
 Reference value :  1.40115e-05
 Reference value :  1.40127e-05
 Reference value :  1.40192e-05
 Reference value :  1.40420e-05
 Reference value :  1.40698e-05
 Reference value :  1.42369e-05
 Reference value :  1.44597e-05
 Reference value :  1.50005e-05
 Reference value :  1.50007e-05
 Reference value :  1.50010e-05
 Reference value :  1.50011e-05
 Reference value :  1.50014e-05
 Reference value :  1.50021e-05
 Reference value :  1.50026e-05
 Reference value :  1.50038e-05
 Reference value :  1.50045e-05
 Reference value :  1.50050e-05
 Reference value :  1.50063e-05
 Reference value :  1.50071e-05
 Reference value :  1.50095e-05
 Reference value :  1.50152e-05
 Reference value :  1.50336e-05
 Reference value :  1.50568e-05
 Reference value :  1.51925e-05
 Reference value :  1.57355e-05
 Reference value :  1.60000e-05
 Reference value :  1.60004e-05
 Reference value :  1.60005e-05
 Reference value :  1.60006e-05
 Reference value :  1.60010e-05
 Reference value :  1.60020e-05
 Reference value :  1.60025e-05
 Reference value :  1.60030e-05
 Reference value :  1.60035e-05
 Reference value :  1.60046e-05
 Reference value :  1.60056e-05
 Reference value :  1.60069e-05
 Reference value :  1.60090e-05
 Reference value :  1.60107e-05
 Reference value :  1.60120e-05
 Reference value :  1.60135e-05
 Reference value :  1.60146e-05
 Reference value :  1.60155e-05
 Reference value :  1.60165e-05
 Reference value :  1.60176e-05
 Reference value :  1.60190e-05
 Reference value :  1.60223e-05
 Reference value :  1.60294e-05
 Reference value :  1.60378e-05
 Reference value :  1.60520e-05
 Reference value :  1.60717e-05
 Reference value :  1.61346e-05
 Reference value :  1.62170e-05
 Reference value :  1.62584e-05
 Reference value :  1.63976e-05
 Reference value :  1.67559e-05
 Reference value :  1.70006e-05
 Reference value :  1.70009e-05
 Reference value :  1.70010e-05
 Reference value :  1.70010e-05
 Reference value :  1.70012e-05
 Reference value :  1.70014e-05
 Reference value :  1.70021e-05
 Reference value :  1.70026e-05
 Reference value :  1.70031e-05
 Reference value :  1.70038e-05
 Reference value :  1.70045e-05
 Reference value :  1.70050e-05
 Reference value :  1.70057e-05
 Reference value :  1.70071e-05
 Reference value :  1.70096e-05
 Reference value :  1.70152e-05
 Reference value :  1.70336e-05
 Reference value :  1.71050e-05
 Reference value :  1.73905e-05
 Reference value :  1.80000e-05
 Reference value :  1.80002e-05
 Reference value :  1.80005e-05
 Reference value :  1.80006e-05
 Reference value :  1.80010e-05
 Reference value :  1.80015e-05
 Reference value :  1.80020e-05
 Reference value :  1.80025e-05
 Reference value :  1.80035e-05
 Reference value :  1.80041e-05
 Reference value :  1.80047e-05
 Reference value :  1.80062e-05
 Reference value :  1.80068e-05
 Reference value :  1.80076e-05
 Reference value :  1.80086e-05
 Reference value :  1.80095e-05
 Reference value :  1.80104e-05
 Reference value :  1.80115e-05
 Reference value :  1.80151e-05
 Reference value :  1.80268e-05
 Reference value :  1.80694e-05
 Reference value :  1.82350e-05
 Reference value :  1.88973e-05
 Reference value :  1.90005e-05
 Reference value :  1.90007e-05
 Reference value :  1.90009e-05
 Reference value :  1.90010e-05
 Reference value :  1.90010e-05
 Reference value :  1.90011e-05
 Reference value :  1.90014e-05
 Reference value :  1.90021e-05
 Reference value :  1.90026e-05
 Reference value :  1.90031e-05
 Reference value :  1.90038e-05
 Reference value :  1.90045e-05
 Reference value :  1.90050e-05
 Reference value :  1.90056e-05
 Reference value :  1.90063e-05
 Reference value :  1.90071e-05
 Reference value :  1.90095e-05
 Reference value :  1.90152e-05
 Reference value :  1.90336e-05
 Reference value :  1.91021e-05
 Reference value :  1.91926e-05
 Reference value :  1.97362e-05
 Reference value :  2.00001e-05
 Reference value :  2.00004e-05
 Reference value :  2.00005e-05
 Reference value :  2.00005e-05
 Reference value :  2.00007e-05
 Reference value :  2.00015e-05
 Reference value :  2.00020e-05
 Reference value :  2.00025e-05
 Reference value :  2.00030e-05
 Reference value :  2.00035e-05
 Reference value :  2.00041e-05
 Reference value :  2.00046e-05
 Reference value :  2.00052e-05
 Reference value :  2.00056e-05
 Reference value :  2.00062e-05
 Reference value :  2.00069e-05
 Reference value :  2.00090e-05
 Reference value :  2.00106e-05
 Reference value :  2.00120e-05
 Reference value :  2.00135e-05
 Reference value :  2.00146e-05
 Reference value :  2.00166e-05
 Reference value :  2.00189e-05
 Reference value :  2.00222e-05
 Reference value :  2.00296e-05
 Reference value :  2.00503e-05
 Reference value :  2.00869e-05
 Reference value :  2.01485e-05
 Reference value :  2.03041e-05
 Reference value :  2.06860e-05
 Reference value :  2.10005e-05
 Reference value :  2.10008e-05
 Reference value :  2.10010e-05
 Reference value :  2.10011e-05
 Reference value :  2.10014e-05
 Reference value :  2.10021e-05
 Reference value :  2.10026e-05
 Reference value :  2.10038e-05
 Reference value :  2.10045e-05
 Reference value :  2.10050e-05
 Reference value :  2.10063e-05
 Reference value :  2.10071e-05
 Reference value :  2.10096e-05
 Reference value :  2.10152e-05
 Reference value :  2.10336e-05
 Reference value :  2.11046e-05
 Reference value :  2.13886e-05
 Reference value :  2.20000e-05
 Reference value :  2.20000e-05
 Reference value :  2.20004e-05
 Reference value :  2.20005e-05
 Reference value :  2.20005e-05
 Reference value :  2.20006e-05
 Reference value :  2.20010e-05
 Reference value :  2.20020e-05
 Reference value :  2.20025e-05
 Reference value :  2.20030e-05
 Reference value :  2.20035e-05
 Reference value :  2.20041e-05
 Reference value :  2.20053e-05
 Reference value :  2.20062e-05
 Reference value :  2.20068e-05
 Reference value :  2.20086e-05
 Reference value :  2.20095e-05
 Reference value :  2.20115e-05
 Reference value :  2.20151e-05
 Reference value :  2.20267e-05
 Reference value :  2.20691e-05
 Reference value :  2.22335e-05
 Reference value :  2.28911e-05
 Reference value :  2.30005e-05
 Reference value :  2.30006e-05
 Reference value :  2.30010e-05
 Reference value :  2.30010e-05
 Reference value :  2.30011e-05
 Reference value :  2.30014e-05
 Reference value :  2.30017e-05
 Reference value :  2.30026e-05
 Reference value :  2.30038e-05
 Reference value :  2.30050e-05
 Reference value :  2.30063e-05
 Reference value :  2.30071e-05
 Reference value :  2.30095e-05
 Reference value :  2.30152e-05
 Reference value :  2.30336e-05
 Reference value :  2.31020e-05
 Reference value :  2.33738e-05
 Reference value :  2.40000e-05
 Reference value :  2.40002e-05
 Reference value :  2.40005e-05
 Reference value :  2.40005e-05
 Reference value :  2.40007e-05
 Reference value :  2.40015e-05
 Reference value :  2.40020e-05
 Reference value :  2.40025e-05
 Reference value :  2.40030e-05
 Reference value :  2.40035e-05
 Reference value :  2.40046e-05
 Reference value :  2.40052e-05
 Reference value :  2.40056e-05
 Reference value :  2.40069e-05
 Reference value :  2.40090e-05
 Reference value :  2.40106e-05
 Reference value :  2.40120e-05
 Reference value :  2.40135e-05
 Reference value :  2.40146e-05
 Reference value :  2.40155e-05
 Reference value :  2.40165e-05
 Reference value :  2.40176e-05
 Reference value :  2.40189e-05
 Reference value :  2.40222e-05
 Reference value :  2.40293e-05
 Reference value :  2.40413e-05
 Reference value :  2.40471e-05
 Reference value :  2.40524e-05
 Reference value :  2.40582e-05
 Reference value :  2.40714e-05
 Reference value :  2.40780e-05
 Reference value :  2.40852e-05
 Reference value :  2.41253e-05
 Reference value :  2.42235e-05
 Reference value :  2.43423e-05
 Reference value :  2.46142e-05
 Reference value :  2.50005e-05
 Reference value :  2.50006e-05
 Reference value :  2.50010e-05
 Reference value :  2.50010e-05
 Reference value :  2.50011e-05
 Reference value :  2.50014e-05
 Reference value :  2.50021e-05
 Reference value :  2.50026e-05
 Reference value :  2.50038e-05
 Reference value :  2.50045e-05
 Reference value :  2.50050e-05
 Reference value :  2.50062e-05
 Reference value :  2.50071e-05
 Reference value :  2.50096e-05
 Reference value :  2.50118e-05
 Reference value :  2.50216e-05
 Reference value :  2.50576e-05
 Reference value :  2.51044e-05
 Reference value :  2.51979e-05
 Reference value :  2.57590e-05
 Reference value :  2.60000e-05
 Reference value :  2.60001e-05
 Reference value :  2.60002e-05
 Reference value :  2.60005e-05
 Reference value :  2.60006e-05
 Reference value :  2.60010e-05
 Reference value :  2.60015e-05
 Reference value :  2.60020e-05
 Reference value :  2.60025e-05
 Reference value :  2.60030e-05
 Reference value :  2.60035e-05
 Reference value :  2.60042e-05
 Reference value :  2.60048e-05
 Reference value :  2.60056e-05
 Reference value :  2.60065e-05
 Reference value :  2.60071e-05
 Reference value :  2.60079e-05
 Reference value :  2.60088e-05
 Reference value :  2.60098e-05
 Reference value :  2.60107e-05
 Reference value :  2.60118e-05
 Reference value :  2.60131e-05
 Reference value :  2.60154e-05
 Reference value :  2.60242e-05
 Reference value :  2.60335e-05
 Reference value :  2.60488e-05
 Reference value :  2.60794e-05
 Reference value :  2.62629e-05
 Reference value :  2.65075e-05
 Reference value :  2.69968e-05
 Reference value :  2.70006e-05
 Reference value :  2.70007e-05
 Reference value :  2.70009e-05
 Reference value :  2.70010e-05
 Reference value :  2.70010e-05
 Reference value :  2.70011e-05
 Reference value :  2.70012e-05
 Reference value :  2.70014e-05
 Reference value :  2.70017e-05
 Reference value :  2.70021e-05
 Reference value :  2.70026e-05
 Reference value :  2.70038e-05
 Reference value :  2.70045e-05
 Reference value :  2.70050e-05
 Reference value :  2.70056e-05
 Reference value :  2.70063e-05
 Reference value :  2.70071e-05
 Reference value :  2.70079e-05
 Reference value :  2.70088e-05
 Reference value :  2.70109e-05
 Reference value :  2.70147e-05
 Reference value :  2.70180e-05
 Reference value :  2.70233e-05
 Reference value :  2.70437e-05
 Reference value :  2.70941e-05
 Reference value :  2.71460e-05
 Reference value :  2.74567e-05
 Reference value :  2.80000e-05
 Reference value :  2.80000e-05
 Reference value :  2.80001e-05
 Reference value :  2.80004e-05
 Reference value :  2.80005e-05
 Reference value :  2.80005e-05
 Reference value :  2.80007e-05
 Reference value :  2.80010e-05
 Reference value :  2.80015e-05
 Reference value :  2.80020e-05
 Reference value :  2.80025e-05
 Reference value :  2.80030e-05
 Reference value :  2.80035e-05
 Reference value :  2.80041e-05
 Reference value :  2.80046e-05
 Reference value :  2.80052e-05
 Reference value :  2.80056e-05
 Reference value :  2.80062e-05
 Reference value :  2.80068e-05
 Reference value :  2.80076e-05
 Reference value :  2.80085e-05
 Reference value :  2.80098e-05
 Reference value :  2.80107e-05
 Reference value :  2.80117e-05
 Reference value :  2.80128e-05
 Reference value :  2.80137e-05
 Reference value :  2.80145e-05
 Reference value :  2.80156e-05
 Reference value :  2.80166e-05
 Reference value :  2.80177e-05
 Reference value :  2.80203e-05
 Reference value :  2.80222e-05
 Reference value :  2.80280e-05
 Reference value :  2.80322e-05
 Reference value :  2.80574e-05
 Reference value :  2.80899e-05
 Reference value :  2.82112e-05
 Reference value :  2.85027e-05
 Reference value :  2.88854e-05
 Reference value :  2.90006e-05
 Reference value :  2.90009e-05
 Reference value :  2.90010e-05
 Reference value :  2.90010e-05
 Reference value :  2.90011e-05
 Reference value :  2.90012e-05
 Reference value :  2.90014e-05
 Reference value :  2.90021e-05
 Reference value :  2.90026e-05
 Reference value :  2.90031e-05
 Reference value :  2.90038e-05
 Reference value :  2.90045e-05
 Reference value :  2.90050e-05
 Reference value :  2.90056e-05
 Reference value :  2.90062e-05
 Reference value :  2.90070e-05
 Reference value :  2.90078e-05
 Reference value :  2.90117e-05
 Reference value :  2.90150e-05
 Reference value :  2.90209e-05
 Reference value :  2.90556e-05
 Reference value :  2.91927e-05
 Reference value :  2.93756e-05
 Reference value :  2.97413e-05
 Reference value :  3.00001e-05
 Reference value :  3.00002e-05
 Reference value :  3.00004e-05
 Reference value :  3.00005e-05
 Reference value :  3.00005e-05
 Reference value :  3.00007e-05
 Reference value :  3.00015e-05
 Reference value :  3.00020e-05
 Reference value :  3.00025e-05
 Reference value :  3.00030e-05
 Reference value :  3.00035e-05
 Reference value :  3.00042e-05
 Reference value :  3.00048e-05
 Reference value :  3.00056e-05
 Reference value :  3.00064e-05
 Reference value :  3.00071e-05
 Reference value :  3.00088e-05
 Reference value :  3.00098e-05
 Reference value :  3.00107e-05
 Reference value :  3.00118e-05
 Reference value :  3.00131e-05
 Reference value :  3.00186e-05
 Reference value :  3.00241e-05
 Reference value :  3.00486e-05
 Reference value :  3.01399e-05
 Reference value :  3.02615e-05
 Reference value :  3.09916e-05
 Reference value :  3.10005e-05
 Reference value :  3.10005e-05
 Reference value :  3.10008e-05
 Reference value :  3.10010e-05
 Reference value :  3.10010e-05
 Reference value :  3.10011e-05
 Reference value :  3.10012e-05
 Reference value :  3.10014e-05
 Reference value :  3.10021e-05
 Reference value :  3.10026e-05
 Reference value :  3.10031e-05
 Reference value :  3.10038e-05
 Reference value :  3.10045e-05
 Reference value :  3.10050e-05
 Reference value :  3.10056e-05
 Reference value :  3.10063e-05
 Reference value :  3.10071e-05
 Reference value :  3.10079e-05
 Reference value :  3.10088e-05
 Reference value :  3.10097e-05
 Reference value :  3.10109e-05
 Reference value :  3.10127e-05
 Reference value :  3.10148e-05
 Reference value :  3.10180e-05
 Reference value :  3.10311e-05
 Reference value :  3.10439e-05
 Reference value :  3.10635e-05
 Reference value :  3.10946e-05
 Reference value :  3.11475e-05
 Reference value :  3.14650e-05
 Reference value :  3.18883e-05
 Reference value :  3.20000e-05
 Reference value :  3.20001e-05
 Reference value :  3.20005e-05
 Reference value :  3.20005e-05
 Reference value :  3.20006e-05
 Reference value :  3.20007e-05
 Reference value :  3.20010e-05
 Reference value :  3.20015e-05
 Reference value :  3.20025e-05
 Reference value :  3.20030e-05
 Reference value :  3.20035e-05
 Reference value :  3.20046e-05
 Reference value :  3.20052e-05
 Reference value :  3.20056e-05
 Reference value :  3.20062e-05
 Reference value :  3.20076e-05
 Reference value :  3.20083e-05
 Reference value :  3.20091e-05
 Reference value :  3.20098e-05
 Reference value :  3.20106e-05
 Reference value :  3.20115e-05
 Reference value :  3.20144e-05
 Reference value :  3.20170e-05
 Reference value :  3.20206e-05
 Reference value :  3.20311e-05
 Reference value :  3.20606e-05
 Reference value :  3.20786e-05
 Reference value :  3.21092e-05
 Reference value :  3.21401e-05
 Reference value :  3.21641e-05
 Reference value :  3.21876e-05
 Reference value :  3.22162e-05
 Reference value :  3.22738e-05
 Reference value :  3.23083e-05
 Reference value :  3.25154e-05
 Reference value :  3.30005e-05
 Reference value :  3.30006e-05
 Reference value :  3.30007e-05
 Reference value :  3.30009e-05
 Reference value :  3.30010e-05
 Reference value :  3.30010e-05
 Reference value :  3.30011e-05
 Reference value :  3.30012e-05
 Reference value :  3.30015e-05
 Reference value :  3.30017e-05
 Reference value :  3.30022e-05
 Reference value :  3.30027e-05
 Reference value :  3.30032e-05
 Reference value :  3.30039e-05
 Reference value :  3.30046e-05
 Reference value :  3.30056e-05
 Reference value :  3.30065e-05
 Reference value :  3.30075e-05
 Reference value :  3.30089e-05
 Reference value :  3.30134e-05
 Reference value :  3.30261e-05
 Reference value :  3.30431e-05
 Reference value :  3.31451e-05
 Reference value :  3.32811e-05
 Reference value :  3.40000e-05
No. of Data Rows : 1261
ngspice-44 done
