
Note: Compatibility modes selected: hs a


Circuit: ** sch_path: /home/ece/cace/sar-adc-using-sky130-pdk/runs/run_2025-09-12_17-57-15/parameters/sndr/run_0/sndr_enob_fom.sch

option SCALE: Scale is set to 1e-06 for instance and model parameters
option SCALE: Scale is set to 1e-06 for instance and model parameters
option SCALE: Scale is set to 1e-06 for instance and model parameters
option SCALE: Scale is set to 1e-06 for instance and model parameters
Doing analysis at TEMP = 27.000000 and TNOM = 27.000000

Using KLU as Direct Linear Solver
Operating point simulation skipped by 'uic',
  now using transient initial conditions.
 Reference value :  1.00000e-12
 Reference value :  1.02772e-12
 Reference value :  1.08316e-12
 Reference value :  1.19404e-12
 Reference value :  1.33846e-12
 Reference value :  1.62730e-12
 Reference value :  2.20497e-12
 Reference value :  3.04278e-12
 Reference value :  3.94867e-12
 Reference value :  5.16841e-12
 Reference value :  6.91287e-12
 Reference value :  1.01047e-11
 Reference value :  1.38122e-11
 Reference value :  2.05308e-11
 Reference value :  2.75531e-11
 Reference value :  3.64745e-11
 Reference value :  4.75833e-11
 Reference value :  6.42930e-11
 Reference value :  8.39129e-11
 Reference value :  1.00000e-10
 Reference value :  1.01352e-10
 Reference value :  1.04056e-10
 Reference value :  1.09465e-10
 Reference value :  1.20282e-10
 Reference value :  1.41916e-10
 Reference value :  1.85184e-10
 Reference value :  2.71721e-10
 Reference value :  4.23266e-10
 Reference value :  5.96617e-10
 Reference value :  8.72064e-10
 Reference value :  1.26230e-09
 Reference value :  1.76740e-09
 Reference value :  2.49630e-09
 Reference value :  3.25450e-09
 Reference value :  4.45578e-09
 Reference value :  5.29626e-09
 Reference value :  6.24938e-09
 Reference value :  7.23937e-09
 Reference value :  8.35535e-09
 Reference value :  9.78043e-09
 Reference value :  1.12865e-08
 Reference value :  1.35931e-08
 Reference value :  1.59663e-08
 Reference value :  1.87066e-08
 Reference value :  2.08088e-08
 Reference value :  2.28852e-08
 Reference value :  2.48499e-08
 Reference value :  2.71508e-08
 Reference value :  2.98803e-08
 Reference value :  3.36797e-08
 Reference value :  3.95944e-08
 Reference value :  4.76612e-08
 Reference value :  5.51681e-08
 Reference value :  6.26741e-08
 Reference value :  6.69757e-08
 Reference value :  7.24115e-08
 Reference value :  7.98277e-08
 Reference value :  8.74636e-08
 Reference value :  9.55216e-08
 Reference value :  1.04485e-07
 Reference value :  1.22413e-07
 Reference value :  1.44297e-07
 Reference value :  1.83707e-07
 Reference value :  2.50100e-07
 Reference value :  2.50110e-07
 Reference value :  2.50130e-07
 Reference value :  2.50170e-07
 Reference value :  2.50200e-07
 Reference value :  2.50201e-07
 Reference value :  2.50202e-07
 Reference value :  2.50204e-07
 Reference value :  2.50208e-07
 Reference value :  2.50216e-07
 Reference value :  2.50233e-07
 Reference value :  2.50267e-07
 Reference value :  2.50335e-07
 Reference value :  2.50429e-07
 Reference value :  2.50612e-07
 Reference value :  2.50793e-07
 Reference value :  2.51133e-07
 Reference value :  2.51557e-07
 Reference value :  2.52193e-07
 Reference value :  2.52859e-07
 Reference value :  2.53678e-07
 Reference value :  2.54688e-07
 Reference value :  2.55728e-07
 Reference value :  2.56661e-07
 Reference value :  2.57640e-07
 Reference value :  2.58672e-07
 Reference value :  2.59800e-07
 Reference value :  2.61282e-07
 Reference value :  2.63543e-07
 Reference value :  2.65984e-07
 Reference value :  2.69931e-07
 Reference value :  2.74815e-07
 Reference value :  2.84585e-07
 Reference value :  3.03474e-07
 Reference value :  3.34952e-07
 Reference value :  3.97907e-07
 Reference value :  5.00000e-07
 Reference value :  5.00010e-07
 Reference value :  5.00030e-07
 Reference value :  5.00070e-07
 Reference value :  5.00100e-07
 Reference value :  5.00104e-07
 Reference value :  5.00113e-07
 Reference value :  5.00130e-07
 Reference value :  5.00164e-07
 Reference value :  5.00232e-07
 Reference value :  5.00369e-07
 Reference value :  5.00559e-07
 Reference value :  5.00941e-07
 Reference value :  5.01536e-07
 Reference value :  5.02163e-07
 Reference value :  5.02802e-07
 Reference value :  5.03584e-07
 Reference value :  5.04327e-07
 Reference value :  5.05220e-07
 Reference value :  5.06168e-07
 Reference value :  5.07125e-07
 Reference value :  5.08519e-07
 Reference value :  5.09831e-07
 Reference value :  5.12440e-07
 Reference value :  5.15587e-07
 Reference value :  5.17854e-07
 Reference value :  5.20406e-07
 Reference value :  5.23012e-07
 Reference value :  5.25698e-07
 Reference value :  5.28914e-07
 Reference value :  5.34176e-07
 Reference value :  5.41311e-07
 Reference value :  5.51660e-07
 Reference value :  5.72358e-07
 Reference value :  6.01910e-07
 Reference value :  6.58695e-07
 Reference value :  7.50100e-07
 Reference value :  7.50110e-07
 Reference value :  7.50130e-07
 Reference value :  7.50170e-07
 Reference value :  7.50200e-07
 Reference value :  7.50201e-07
 Reference value :  7.50202e-07
 Reference value :  7.50205e-07
 Reference value :  7.50211e-07
 Reference value :  7.50223e-07
 Reference value :  7.50248e-07
 Reference value :  7.50296e-07
 Reference value :  7.50393e-07
 Reference value :  7.50586e-07
 Reference value :  7.50971e-07
 Reference value :  7.51562e-07
 Reference value :  7.52220e-07
 Reference value :  7.52980e-07
 Reference value :  7.53822e-07
 Reference value :  7.54912e-07
 Reference value :  7.55811e-07
 Reference value :  7.56879e-07
 Reference value :  7.57790e-07
 Reference value :  7.58779e-07
 Reference value :  7.59897e-07
 Reference value :  7.61152e-07
 Reference value :  7.62416e-07
 Reference value :  7.64280e-07
 Reference value :  7.66205e-07
 Reference value :  7.68988e-07
 Reference value :  7.72285e-07
 Reference value :  7.77225e-07
 Reference value :  7.86680e-07
 Reference value :  7.99495e-07
 Reference value :  8.22704e-07
 Reference value :  8.68628e-07
 Reference value :  9.54331e-07
 Reference value :  1.00000e-06
 Reference value :  1.00001e-06
 Reference value :  1.00003e-06
 Reference value :  1.00007e-06
 Reference value :  1.00010e-06
 Reference value :  1.00010e-06
 Reference value :  1.00011e-06
 Reference value :  1.00013e-06
 Reference value :  1.00016e-06
 Reference value :  1.00023e-06
 Reference value :  1.00037e-06
 Reference value :  1.00056e-06
 Reference value :  1.00094e-06
 Reference value :  1.00154e-06
 Reference value :  1.00216e-06
 Reference value :  1.00285e-06
 Reference value :  1.00356e-06
 Reference value :  1.00432e-06
 Reference value :  1.00516e-06
 Reference value :  1.00610e-06
 Reference value :  1.00693e-06
 Reference value :  1.00779e-06
 Reference value :  1.00864e-06
 Reference value :  1.00951e-06
 Reference value :  1.01040e-06
 Reference value :  1.01174e-06
 Reference value :  1.01298e-06
 Reference value :  1.01529e-06
 Reference value :  1.01759e-06
 Reference value :  1.01941e-06
 Reference value :  1.02140e-06
 Reference value :  1.02330e-06
 Reference value :  1.02526e-06
 Reference value :  1.02726e-06
 Reference value :  1.02906e-06
 Reference value :  1.03091e-06
 Reference value :  1.03318e-06
 Reference value :  1.03573e-06
 Reference value :  1.03877e-06
 Reference value :  1.04355e-06
 Reference value :  1.05008e-06
 Reference value :  1.06067e-06
 Reference value :  1.07750e-06
 Reference value :  1.10439e-06
 Reference value :  1.14938e-06
 Reference value :  1.22762e-06
 Reference value :  1.25010e-06
 Reference value :  1.25011e-06
 Reference value :  1.25013e-06
 Reference value :  1.25017e-06
 Reference value :  1.25020e-06
 Reference value :  1.25020e-06
 Reference value :  1.25020e-06
 Reference value :  1.25021e-06
 Reference value :  1.25021e-06
 Reference value :  1.25022e-06
 Reference value :  1.25025e-06
 Reference value :  1.25030e-06
 Reference value :  1.25039e-06
 Reference value :  1.25059e-06
 Reference value :  1.25093e-06
 Reference value :  1.25155e-06
 Reference value :  1.25217e-06
 Reference value :  1.25296e-06
 Reference value :  1.25376e-06
 Reference value :  1.25484e-06
 Reference value :  1.25576e-06
 Reference value :  1.25682e-06
 Reference value :  1.25795e-06
 Reference value :  1.25899e-06
 Reference value :  1.26082e-06
 Reference value :  1.26254e-06
 Reference value :  1.26537e-06
 Reference value :  1.26886e-06
 Reference value :  1.27413e-06
 Reference value :  1.28467e-06
 Reference value :  1.30353e-06
 Reference value :  1.33790e-06
 Reference value :  1.40666e-06
 Reference value :  1.50000e-06
 Reference value :  1.50001e-06
 Reference value :  1.50003e-06
 Reference value :  1.50007e-06
 Reference value :  1.50010e-06
 Reference value :  1.50010e-06
 Reference value :  1.50011e-06
 Reference value :  1.50013e-06
 Reference value :  1.50016e-06
 Reference value :  1.50023e-06
 Reference value :  1.50037e-06
 Reference value :  1.50056e-06
 Reference value :  1.50093e-06
 Reference value :  1.50161e-06
 Reference value :  1.50223e-06
 Reference value :  1.50286e-06
 Reference value :  1.50357e-06
 Reference value :  1.50431e-06
 Reference value :  1.50516e-06
 Reference value :  1.50607e-06
 Reference value :  1.50711e-06
 Reference value :  1.50844e-06
 Reference value :  1.50981e-06
 Reference value :  1.51139e-06
 Reference value :  1.51278e-06
 Reference value :  1.51425e-06
 Reference value :  1.51632e-06
 Reference value :  1.51822e-06
 Reference value :  1.52025e-06
 Reference value :  1.52334e-06
 Reference value :  1.52624e-06
 Reference value :  1.53178e-06
 Reference value :  1.53925e-06
 Reference value :  1.55162e-06
 Reference value :  1.57327e-06
 Reference value :  1.60787e-06
 Reference value :  1.67119e-06
 Reference value :  1.75010e-06
 Reference value :  1.75011e-06
 Reference value :  1.75013e-06
 Reference value :  1.75017e-06
 Reference value :  1.75020e-06
 Reference value :  1.75020e-06
 Reference value :  1.75020e-06
 Reference value :  1.75021e-06
 Reference value :  1.75021e-06
 Reference value :  1.75022e-06
 Reference value :  1.75025e-06
 Reference value :  1.75030e-06
 Reference value :  1.75040e-06
 Reference value :  1.75059e-06
 Reference value :  1.75094e-06
 Reference value :  1.75155e-06
 Reference value :  1.75218e-06
 Reference value :  1.75295e-06
 Reference value :  1.75378e-06
 Reference value :  1.75485e-06
 Reference value :  1.75576e-06
 Reference value :  1.75683e-06
 Reference value :  1.75775e-06
 Reference value :  1.75874e-06
 Reference value :  1.75987e-06
 Reference value :  1.76113e-06
 Reference value :  1.76244e-06
 Reference value :  1.76422e-06
 Reference value :  1.76647e-06
 Reference value :  1.76921e-06
 Reference value :  1.77290e-06
 Reference value :  1.77804e-06
 Reference value :  1.78832e-06
 Reference value :  1.80690e-06
 Reference value :  1.84406e-06
 Reference value :  1.91837e-06
 Reference value :  2.00000e-06
 Reference value :  2.00001e-06
 Reference value :  2.00003e-06
 Reference value :  2.00007e-06
 Reference value :  2.00010e-06
 Reference value :  2.00010e-06
 Reference value :  2.00011e-06
 Reference value :  2.00013e-06
 Reference value :  2.00016e-06
 Reference value :  2.00023e-06
 Reference value :  2.00037e-06
 Reference value :  2.00055e-06
 Reference value :  2.00092e-06
 Reference value :  2.00160e-06
 Reference value :  2.00223e-06
 Reference value :  2.00291e-06
 Reference value :  2.00363e-06
 Reference value :  2.00438e-06
 Reference value :  2.00522e-06
 Reference value :  2.00613e-06
 Reference value :  2.00697e-06
 Reference value :  2.00785e-06
 Reference value :  2.00875e-06
 Reference value :  2.00971e-06
 Reference value :  2.01060e-06
 Reference value :  2.01185e-06
 Reference value :  2.01314e-06
 Reference value :  2.01539e-06
 Reference value :  2.01786e-06
 Reference value :  2.01970e-06
 Reference value :  2.02174e-06
 Reference value :  2.02370e-06
 Reference value :  2.02518e-06
 Reference value :  2.02659e-06
 Reference value :  2.02807e-06
 Reference value :  2.02965e-06
 Reference value :  2.03162e-06
 Reference value :  2.03343e-06
 Reference value :  2.03670e-06
 Reference value :  2.03967e-06
 Reference value :  2.04560e-06
 Reference value :  2.05745e-06
 Reference value :  2.07146e-06
 Reference value :  2.09948e-06
 Reference value :  2.14125e-06
 Reference value :  2.20419e-06
 Reference value :  2.25010e-06
 Reference value :  2.25011e-06
 Reference value :  2.25013e-06
 Reference value :  2.25017e-06
 Reference value :  2.25020e-06
 Reference value :  2.25020e-06
 Reference value :  2.25020e-06
 Reference value :  2.25021e-06
 Reference value :  2.25021e-06
 Reference value :  2.25022e-06
 Reference value :  2.25025e-06
 Reference value :  2.25030e-06
 Reference value :  2.25039e-06
 Reference value :  2.25059e-06
 Reference value :  2.25093e-06
 Reference value :  2.25154e-06
 Reference value :  2.25217e-06
 Reference value :  2.25295e-06
 Reference value :  2.25376e-06
 Reference value :  2.25483e-06
 Reference value :  2.25576e-06
 Reference value :  2.25682e-06
 Reference value :  2.25794e-06
 Reference value :  2.25897e-06
 Reference value :  2.26079e-06
 Reference value :  2.26250e-06
 Reference value :  2.26532e-06
 Reference value :  2.26879e-06
 Reference value :  2.27403e-06
 Reference value :  2.28450e-06
 Reference value :  2.30330e-06
 Reference value :  2.33756e-06
 Reference value :  2.40608e-06
 Reference value :  2.46482e-06
 Reference value :  2.50000e-06
 Reference value :  2.50001e-06
 Reference value :  2.50003e-06
 Reference value :  2.50007e-06
 Reference value :  2.50010e-06
 Reference value :  2.50010e-06
 Reference value :  2.50011e-06
 Reference value :  2.50013e-06
 Reference value :  2.50016e-06
 Reference value :  2.50023e-06
 Reference value :  2.50037e-06
 Reference value :  2.50055e-06
 Reference value :  2.50092e-06
 Reference value :  2.50160e-06
 Reference value :  2.50223e-06
 Reference value :  2.50286e-06
 Reference value :  2.50357e-06
 Reference value :  2.50432e-06
 Reference value :  2.50516e-06
 Reference value :  2.50607e-06
 Reference value :  2.50711e-06
 Reference value :  2.50846e-06
 Reference value :  2.50982e-06
 Reference value :  2.51139e-06
 Reference value :  2.51280e-06
 Reference value :  2.51428e-06
 Reference value :  2.51633e-06
 Reference value :  2.51823e-06
 Reference value :  2.52034e-06
 Reference value :  2.52307e-06
 Reference value :  2.52652e-06
 Reference value :  2.53218e-06
 Reference value :  2.54080e-06
 Reference value :  2.55551e-06
 Reference value :  2.58087e-06
 Reference value :  2.62445e-06
 Reference value :  2.70555e-06
 Reference value :  2.75010e-06
 Reference value :  2.75011e-06
 Reference value :  2.75013e-06
 Reference value :  2.75017e-06
 Reference value :  2.75020e-06
 Reference value :  2.75020e-06
 Reference value :  2.75020e-06
 Reference value :  2.75021e-06
 Reference value :  2.75021e-06
 Reference value :  2.75022e-06
 Reference value :  2.75025e-06
 Reference value :  2.75030e-06
 Reference value :  2.75040e-06
 Reference value :  2.75059e-06
 Reference value :  2.75094e-06
 Reference value :  2.75155e-06
 Reference value :  2.75218e-06
 Reference value :  2.75295e-06
 Reference value :  2.75377e-06
 Reference value :  2.75484e-06
 Reference value :  2.75575e-06
 Reference value :  2.75682e-06
 Reference value :  2.75776e-06
 Reference value :  2.75875e-06
 Reference value :  2.75988e-06
 Reference value :  2.76115e-06
 Reference value :  2.76248e-06
 Reference value :  2.76424e-06
 Reference value :  2.76654e-06
 Reference value :  2.76929e-06
 Reference value :  2.77302e-06
 Reference value :  2.77822e-06
 Reference value :  2.78862e-06
 Reference value :  2.80806e-06
 Reference value :  2.84694e-06
 Reference value :  2.92470e-06
 Reference value :  3.00000e-06
 Reference value :  3.00001e-06
 Reference value :  3.00003e-06
 Reference value :  3.00007e-06
 Reference value :  3.00010e-06
 Reference value :  3.00010e-06
 Reference value :  3.00011e-06
 Reference value :  3.00013e-06
 Reference value :  3.00016e-06
 Reference value :  3.00023e-06
 Reference value :  3.00037e-06
 Reference value :  3.00055e-06
 Reference value :  3.00092e-06
 Reference value :  3.00160e-06
 Reference value :  3.00223e-06
 Reference value :  3.00291e-06
 Reference value :  3.00362e-06
 Reference value :  3.00438e-06
 Reference value :  3.00522e-06
 Reference value :  3.00612e-06
 Reference value :  3.00707e-06
 Reference value :  3.00793e-06
 Reference value :  3.00885e-06
 Reference value :  3.00983e-06
 Reference value :  3.01077e-06
 Reference value :  3.01210e-06
 Reference value :  3.01350e-06
 Reference value :  3.01567e-06
 Reference value :  3.01722e-06
 Reference value :  3.01893e-06
 Reference value :  3.02050e-06
 Reference value :  3.02231e-06
 Reference value :  3.02381e-06
 Reference value :  3.02532e-06
 Reference value :  3.02711e-06
 Reference value :  3.02876e-06
 Reference value :  3.03034e-06
 Reference value :  3.03237e-06
 Reference value :  3.03463e-06
 Reference value :  3.03737e-06
 Reference value :  3.04150e-06
 Reference value :  3.04780e-06
 Reference value :  3.05792e-06
 Reference value :  3.07501e-06
 Reference value :  3.10346e-06
 Reference value :  3.12974e-06
 Reference value :  3.15708e-06
 Reference value :  3.17950e-06
 Reference value :  3.19044e-06
 Reference value :  3.20108e-06
 Reference value :  3.21120e-06
 Reference value :  3.22868e-06
 Reference value :  3.25010e-06
 Reference value :  3.25011e-06
 Reference value :  3.25013e-06
 Reference value :  3.25017e-06
 Reference value :  3.25020e-06
 Reference value :  3.25020e-06
 Reference value :  3.25020e-06
 Reference value :  3.25021e-06
 Reference value :  3.25021e-06
 Reference value :  3.25022e-06
 Reference value :  3.25025e-06
 Reference value :  3.25030e-06
 Reference value :  3.25039e-06
 Reference value :  3.25059e-06
 Reference value :  3.25093e-06
 Reference value :  3.25154e-06
 Reference value :  3.25217e-06
 Reference value :  3.25294e-06
 Reference value :  3.25375e-06
 Reference value :  3.25482e-06
 Reference value :  3.25578e-06
 Reference value :  3.25687e-06
 Reference value :  3.25797e-06
 Reference value :  3.25905e-06
 Reference value :  3.26083e-06
 Reference value :  3.26259e-06
 Reference value :  3.26540e-06
 Reference value :  3.26894e-06
 Reference value :  3.27425e-06
 Reference value :  3.28486e-06
 Reference value :  3.30341e-06
 Reference value :  3.33721e-06
 Reference value :  3.40482e-06
 Reference value :  3.50000e-06
 Reference value :  3.50001e-06
 Reference value :  3.50003e-06
 Reference value :  3.50007e-06
 Reference value :  3.50010e-06
 Reference value :  3.50010e-06
 Reference value :  3.50011e-06
 Reference value :  3.50013e-06
 Reference value :  3.50016e-06
 Reference value :  3.50023e-06
 Reference value :  3.50037e-06
 Reference value :  3.50056e-06
 Reference value :  3.50093e-06
 Reference value :  3.50161e-06
 Reference value :  3.50223e-06
 Reference value :  3.50291e-06
 Reference value :  3.50362e-06
 Reference value :  3.50438e-06
 Reference value :  3.50523e-06
 Reference value :  3.50615e-06
 Reference value :  3.50711e-06
 Reference value :  3.50847e-06
 Reference value :  3.50978e-06
 Reference value :  3.51139e-06
 Reference value :  3.51288e-06
 Reference value :  3.51443e-06
 Reference value :  3.51596e-06
 Reference value :  3.51767e-06
 Reference value :  3.51944e-06
 Reference value :  3.52137e-06
 Reference value :  3.52522e-06
 Reference value :  3.53289e-06
 Reference value :  3.54588e-06
 Reference value :  3.57185e-06
 Reference value :  3.62380e-06
 Reference value :  3.72770e-06
 Reference value :  3.75010e-06
 Reference value :  3.75011e-06
 Reference value :  3.75013e-06
 Reference value :  3.75017e-06
 Reference value :  3.75020e-06
 Reference value :  3.75020e-06
 Reference value :  3.75020e-06
 Reference value :  3.75021e-06
 Reference value :  3.75021e-06
 Reference value :  3.75022e-06
 Reference value :  3.75025e-06
 Reference value :  3.75030e-06
 Reference value :  3.75039e-06
 Reference value :  3.75059e-06
 Reference value :  3.75093e-06
 Reference value :  3.75154e-06
 Reference value :  3.75216e-06
 Reference value :  3.75294e-06
 Reference value :  3.75375e-06
 Reference value :  3.75482e-06
 Reference value :  3.75575e-06
 Reference value :  3.75683e-06
 Reference value :  3.75778e-06
 Reference value :  3.75877e-06
 Reference value :  3.75991e-06
 Reference value :  3.76119e-06
 Reference value :  3.76374e-06
 Reference value :  3.76656e-06
 Reference value :  3.77110e-06
 Reference value :  3.77724e-06
 Reference value :  3.78952e-06
 Reference value :  3.81409e-06
 Reference value :  3.86323e-06
 Reference value :  3.96151e-06
 Reference value :  4.00000e-06
 Reference value :  4.00001e-06
 Reference value :  4.00003e-06
 Reference value :  4.00007e-06
 Reference value :  4.00010e-06
 Reference value :  4.00010e-06
 Reference value :  4.00011e-06
 Reference value :  4.00013e-06
 Reference value :  4.00016e-06
 Reference value :  4.00023e-06
 Reference value :  4.00037e-06
 Reference value :  4.00055e-06
 Reference value :  4.00092e-06
 Reference value :  4.00160e-06
 Reference value :  4.00223e-06
 Reference value :  4.00291e-06
 Reference value :  4.00363e-06
 Reference value :  4.00439e-06
 Reference value :  4.00523e-06
 Reference value :  4.00615e-06
 Reference value :  4.00717e-06
 Reference value :  4.00818e-06
 Reference value :  4.00913e-06
 Reference value :  4.01013e-06
 Reference value :  4.01117e-06
 Reference value :  4.01254e-06
 Reference value :  4.01441e-06
 Reference value :  4.01726e-06
 Reference value :  4.02017e-06
 Reference value :  4.02254e-06
 Reference value :  4.02446e-06
 Reference value :  4.02627e-06
 Reference value :  4.02828e-06
 Reference value :  4.03017e-06
 Reference value :  4.03235e-06
 Reference value :  4.03472e-06
 Reference value :  4.03806e-06
 Reference value :  4.04200e-06
 Reference value :  4.04792e-06
 Reference value :  4.05332e-06
 Reference value :  4.05841e-06
 Reference value :  4.06520e-06
 Reference value :  4.07251e-06
 Reference value :  4.07785e-06
 Reference value :  4.08274e-06
 Reference value :  4.08785e-06
 Reference value :  4.09562e-06
 Reference value :  4.10261e-06
 Reference value :  4.11050e-06
 Reference value :  4.11910e-06
 Reference value :  4.13493e-06
 Reference value :  4.15692e-06
 Reference value :  4.19112e-06
 Reference value :  4.25010e-06
 Reference value :  4.25011e-06
 Reference value :  4.25013e-06
 Reference value :  4.25017e-06
 Reference value :  4.25020e-06
 Reference value :  4.25020e-06
 Reference value :  4.25020e-06
 Reference value :  4.25021e-06
 Reference value :  4.25021e-06
 Reference value :  4.25022e-06
 Reference value :  4.25025e-06
 Reference value :  4.25030e-06
 Reference value :  4.25040e-06
 Reference value :  4.25059e-06
 Reference value :  4.25094e-06
 Reference value :  4.25154e-06
 Reference value :  4.25218e-06
 Reference value :  4.25294e-06
 Reference value :  4.25376e-06
 Reference value :  4.25483e-06
 Reference value :  4.25570e-06
 Reference value :  4.25672e-06
 Reference value :  4.25768e-06
 Reference value :  4.25870e-06
 Reference value :  4.26041e-06
 Reference value :  4.26199e-06
 Reference value :  4.26484e-06
 Reference value :  4.26791e-06
 Reference value :  4.27296e-06
 Reference value :  4.28160e-06
 Reference value :  4.29888e-06
 Reference value :  4.33343e-06
 Reference value :  4.40253e-06
 Reference value :  4.50000e-06
 Reference value :  4.50001e-06
 Reference value :  4.50003e-06
 Reference value :  4.50007e-06
 Reference value :  4.50010e-06
 Reference value :  4.50010e-06
 Reference value :  4.50011e-06
 Reference value :  4.50013e-06
 Reference value :  4.50016e-06
 Reference value :  4.50023e-06
 Reference value :  4.50037e-06
 Reference value :  4.50056e-06
 Reference value :  4.50092e-06
 Reference value :  4.50161e-06
 Reference value :  4.50223e-06
 Reference value :  4.50286e-06
 Reference value :  4.50357e-06
 Reference value :  4.50431e-06
 Reference value :  4.50516e-06
 Reference value :  4.50606e-06
 Reference value :  4.50702e-06
 Reference value :  4.50838e-06
 Reference value :  4.50964e-06
 Reference value :  4.51115e-06
 Reference value :  4.51248e-06
 Reference value :  4.51389e-06
 Reference value :  4.51531e-06
 Reference value :  4.51699e-06
 Reference value :  4.51879e-06
 Reference value :  4.52066e-06
 Reference value :  4.52439e-06
 Reference value :  4.53187e-06
 Reference value :  4.54489e-06
 Reference value :  4.57093e-06
 Reference value :  4.62302e-06
 Reference value :  4.72719e-06
 Reference value :  4.75010e-06
 Reference value :  4.75011e-06
 Reference value :  4.75013e-06
 Reference value :  4.75017e-06
 Reference value :  4.75020e-06
 Reference value :  4.75020e-06
 Reference value :  4.75020e-06
 Reference value :  4.75021e-06
 Reference value :  4.75021e-06
 Reference value :  4.75022e-06
 Reference value :  4.75025e-06
 Reference value :  4.75030e-06
 Reference value :  4.75039e-06
 Reference value :  4.75059e-06
 Reference value :  4.75092e-06
 Reference value :  4.75154e-06
 Reference value :  4.75216e-06
 Reference value :  4.75294e-06
 Reference value :  4.75375e-06
 Reference value :  4.75481e-06
 Reference value :  4.75573e-06
 Reference value :  4.75680e-06
 Reference value :  4.75774e-06
 Reference value :  4.75874e-06
 Reference value :  4.75987e-06
 Reference value :  4.76114e-06
 Reference value :  4.76241e-06
 Reference value :  4.76421e-06
 Reference value :  4.76638e-06
 Reference value :  4.76914e-06
 Reference value :  4.77275e-06
 Reference value :  4.77786e-06
 Reference value :  4.78809e-06
 Reference value :  4.80443e-06
 Reference value :  4.83712e-06
 Reference value :  4.90249e-06
 Reference value :  5.00000e-06
 Reference value :  5.00001e-06
 Reference value :  5.00003e-06
 Reference value :  5.00007e-06
 Reference value :  5.00010e-06
 Reference value :  5.00010e-06
 Reference value :  5.00011e-06
 Reference value :  5.00013e-06
 Reference value :  5.00016e-06
 Reference value :  5.00023e-06
 Reference value :  5.00037e-06
 Reference value :  5.00055e-06
 Reference value :  5.00092e-06
 Reference value :  5.00160e-06
 Reference value :  5.00223e-06
 Reference value :  5.00291e-06
 Reference value :  5.00363e-06
 Reference value :  5.00440e-06
 Reference value :  5.00524e-06
 Reference value :  5.00615e-06
 Reference value :  5.00702e-06
 Reference value :  5.00792e-06
 Reference value :  5.00885e-06
 Reference value :  5.00984e-06
 Reference value :  5.01084e-06
 Reference value :  5.01222e-06
 Reference value :  5.01390e-06
 Reference value :  5.01542e-06
 Reference value :  5.01707e-06
 Reference value :  5.01876e-06
 Reference value :  5.02054e-06
 Reference value :  5.02231e-06
 Reference value :  5.02369e-06
 Reference value :  5.02503e-06
 Reference value :  5.02672e-06
 Reference value :  5.02835e-06
 Reference value :  5.02989e-06
 Reference value :  5.03195e-06
 Reference value :  5.03396e-06
 Reference value :  5.03688e-06
 Reference value :  5.04068e-06
 Reference value :  5.04775e-06
 Reference value :  5.05935e-06
 Reference value :  5.07648e-06
 Reference value :  5.08846e-06
 Reference value :  5.10212e-06
 Reference value :  5.11507e-06
 Reference value :  5.14097e-06
 Reference value :  5.17096e-06
 Reference value :  5.20039e-06
 Reference value :  5.22415e-06
 Reference value :  5.25010e-06
 Reference value :  5.25011e-06
 Reference value :  5.25013e-06
 Reference value :  5.25017e-06
 Reference value :  5.25020e-06
 Reference value :  5.25020e-06
 Reference value :  5.25020e-06
 Reference value :  5.25021e-06
 Reference value :  5.25021e-06
 Reference value :  5.25022e-06
 Reference value :  5.25025e-06
 Reference value :  5.25030e-06
 Reference value :  5.25040e-06
 Reference value :  5.25059e-06
 Reference value :  5.25094e-06
 Reference value :  5.25154e-06
 Reference value :  5.25217e-06
 Reference value :  5.25294e-06
 Reference value :  5.25376e-06
 Reference value :  5.25482e-06
 Reference value :  5.25576e-06
 Reference value :  5.25682e-06
 Reference value :  5.25793e-06
 Reference value :  5.25898e-06
 Reference value :  5.26077e-06
 Reference value :  5.26250e-06
 Reference value :  5.26530e-06
 Reference value :  5.26878e-06
 Reference value :  5.27399e-06
 Reference value :  5.28441e-06
 Reference value :  5.30295e-06
 Reference value :  5.33664e-06
 Reference value :  5.40403e-06
 Reference value :  5.50000e-06
 Reference value :  5.50001e-06
 Reference value :  5.50003e-06
 Reference value :  5.50007e-06
 Reference value :  5.50010e-06
 Reference value :  5.50010e-06
 Reference value :  5.50011e-06
 Reference value :  5.50013e-06
 Reference value :  5.50016e-06
 Reference value :  5.50023e-06
 Reference value :  5.50037e-06
 Reference value :  5.50056e-06
 Reference value :  5.50093e-06
 Reference value :  5.50161e-06
 Reference value :  5.50223e-06
 Reference value :  5.50286e-06
 Reference value :  5.50357e-06
 Reference value :  5.50431e-06
 Reference value :  5.50516e-06
 Reference value :  5.50606e-06
 Reference value :  5.50711e-06
 Reference value :  5.50845e-06
 Reference value :  5.50982e-06
 Reference value :  5.51138e-06
 Reference value :  5.51291e-06
 Reference value :  5.51447e-06
 Reference value :  5.51595e-06
 Reference value :  5.51754e-06
 Reference value :  5.51924e-06
 Reference value :  5.52118e-06
 Reference value :  5.52493e-06
 Reference value :  5.53039e-06
 Reference value :  5.54132e-06
 Reference value :  5.56318e-06
 Reference value :  5.60459e-06
 Reference value :  5.68742e-06
 Reference value :  5.75010e-06
 Reference value :  5.75011e-06
 Reference value :  5.75013e-06
 Reference value :  5.75017e-06
 Reference value :  5.75020e-06
 Reference value :  5.75020e-06
 Reference value :  5.75020e-06
 Reference value :  5.75021e-06
 Reference value :  5.75021e-06
 Reference value :  5.75022e-06
 Reference value :  5.75025e-06
 Reference value :  5.75030e-06
 Reference value :  5.75039e-06
 Reference value :  5.75059e-06
 Reference value :  5.75093e-06
 Reference value :  5.75154e-06
 Reference value :  5.75216e-06
 Reference value :  5.75294e-06
 Reference value :  5.75375e-06
 Reference value :  5.75481e-06
 Reference value :  5.75575e-06
 Reference value :  5.75683e-06
 Reference value :  5.75778e-06
 Reference value :  5.75878e-06
 Reference value :  5.75992e-06
 Reference value :  5.76120e-06
 Reference value :  5.76256e-06
 Reference value :  5.76429e-06
 Reference value :  5.76675e-06
 Reference value :  5.76951e-06
 Reference value :  5.77341e-06
 Reference value :  5.77876e-06
 Reference value :  5.78948e-06
 Reference value :  5.81090e-06
 Reference value :  5.85375e-06
 Reference value :  5.93945e-06
 Reference value :  6.00000e-06
 Reference value :  6.00001e-06
 Reference value :  6.00003e-06
 Reference value :  6.00007e-06
 Reference value :  6.00010e-06
 Reference value :  6.00010e-06
 Reference value :  6.00011e-06
 Reference value :  6.00013e-06
 Reference value :  6.00016e-06
 Reference value :  6.00023e-06
 Reference value :  6.00037e-06
 Reference value :  6.00055e-06
 Reference value :  6.00092e-06
 Reference value :  6.00160e-06
 Reference value :  6.00223e-06
 Reference value :  6.00291e-06
 Reference value :  6.00363e-06
 Reference value :  6.00438e-06
 Reference value :  6.00523e-06
 Reference value :  6.00613e-06
 Reference value :  6.00708e-06
 Reference value :  6.00794e-06
 Reference value :  6.00880e-06
 Reference value :  6.00981e-06
 Reference value :  6.01077e-06
 Reference value :  6.01209e-06
 Reference value :  6.01392e-06
 Reference value :  6.01570e-06
 Reference value :  6.01751e-06
 Reference value :  6.01955e-06
 Reference value :  6.02145e-06
 Reference value :  6.02334e-06
 Reference value :  6.02473e-06
 Reference value :  6.02600e-06
 Reference value :  6.02739e-06
 Reference value :  6.02879e-06
 Reference value :  6.03022e-06
 Reference value :  6.03187e-06
 Reference value :  6.03414e-06
 Reference value :  6.03666e-06
 Reference value :  6.04071e-06
 Reference value :  6.04773e-06
 Reference value :  6.05364e-06
 Reference value :  6.06023e-06
 Reference value :  6.06756e-06
 Reference value :  6.07922e-06
 Reference value :  6.09576e-06
 Reference value :  6.12830e-06
 Reference value :  6.18803e-06
 Reference value :  6.25010e-06
 Reference value :  6.25011e-06
 Reference value :  6.25013e-06
 Reference value :  6.25017e-06
 Reference value :  6.25020e-06
 Reference value :  6.25020e-06
 Reference value :  6.25020e-06
 Reference value :  6.25021e-06
 Reference value :  6.25021e-06
 Reference value :  6.25022e-06
 Reference value :  6.25025e-06
 Reference value :  6.25030e-06
 Reference value :  6.25040e-06
 Reference value :  6.25059e-06
 Reference value :  6.25094e-06
 Reference value :  6.25154e-06
 Reference value :  6.25218e-06
 Reference value :  6.25294e-06
 Reference value :  6.25376e-06
 Reference value :  6.25483e-06
 Reference value :  6.25575e-06
 Reference value :  6.25682e-06
 Reference value :  6.25793e-06
 Reference value :  6.25897e-06
 Reference value :  6.26077e-06
 Reference value :  6.26248e-06
 Reference value :  6.26528e-06
 Reference value :  6.26875e-06
 Reference value :  6.27396e-06
 Reference value :  6.28437e-06
 Reference value :  6.30286e-06
 Reference value :  6.33649e-06
 Reference value :  6.40376e-06
 Reference value :  6.50000e-06
 Reference value :  6.50001e-06
 Reference value :  6.50003e-06
 Reference value :  6.50007e-06
 Reference value :  6.50010e-06
 Reference value :  6.50010e-06
 Reference value :  6.50011e-06
 Reference value :  6.50013e-06
 Reference value :  6.50016e-06
 Reference value :  6.50023e-06
 Reference value :  6.50037e-06
 Reference value :  6.50056e-06
 Reference value :  6.50093e-06
 Reference value :  6.50161e-06
 Reference value :  6.50223e-06
 Reference value :  6.50286e-06
 Reference value :  6.50357e-06
 Reference value :  6.50431e-06
 Reference value :  6.50516e-06
 Reference value :  6.50606e-06
 Reference value :  6.50702e-06
 Reference value :  6.50838e-06
 Reference value :  6.50965e-06
 Reference value :  6.51122e-06
 Reference value :  6.51252e-06
 Reference value :  6.51392e-06
 Reference value :  6.51526e-06
 Reference value :  6.51687e-06
 Reference value :  6.51854e-06
 Reference value :  6.52034e-06
 Reference value :  6.52393e-06
 Reference value :  6.53112e-06
 Reference value :  6.54426e-06
 Reference value :  6.57054e-06
 Reference value :  6.62310e-06
 Reference value :  6.72822e-06
 Reference value :  6.75010e-06
 Reference value :  6.75011e-06
 Reference value :  6.75013e-06
 Reference value :  6.75017e-06
 Reference value :  6.75020e-06
 Reference value :  6.75020e-06
 Reference value :  6.75020e-06
 Reference value :  6.75021e-06
 Reference value :  6.75021e-06
 Reference value :  6.75022e-06
 Reference value :  6.75025e-06
 Reference value :  6.75030e-06
 Reference value :  6.75039e-06
 Reference value :  6.75059e-06
 Reference value :  6.75093e-06
 Reference value :  6.75154e-06
 Reference value :  6.75216e-06
 Reference value :  6.75294e-06
 Reference value :  6.75375e-06
 Reference value :  6.75481e-06
 Reference value :  6.75574e-06
 Reference value :  6.75682e-06
 Reference value :  6.75777e-06
 Reference value :  6.75877e-06
 Reference value :  6.75991e-06
 Reference value :  6.76119e-06
 Reference value :  6.76253e-06
 Reference value :  6.76427e-06
 Reference value :  6.76668e-06
 Reference value :  6.76945e-06
 Reference value :  6.77328e-06
 Reference value :  6.77860e-06
 Reference value :  6.78922e-06
 Reference value :  6.81047e-06
 Reference value :  6.85298e-06
 Reference value :  6.93798e-06
 Reference value :  7.00000e-06
 Reference value :  7.00001e-06
 Reference value :  7.00003e-06
 Reference value :  7.00007e-06
 Reference value :  7.00010e-06
 Reference value :  7.00010e-06
 Reference value :  7.00011e-06
 Reference value :  7.00013e-06
 Reference value :  7.00016e-06
 Reference value :  7.00023e-06
 Reference value :  7.00037e-06
 Reference value :  7.00055e-06
 Reference value :  7.00092e-06
 Reference value :  7.00160e-06
 Reference value :  7.00223e-06
 Reference value :  7.00291e-06
 Reference value :  7.00363e-06
 Reference value :  7.00438e-06
 Reference value :  7.00522e-06
 Reference value :  7.00613e-06
 Reference value :  7.00697e-06
 Reference value :  7.00786e-06
 Reference value :  7.00876e-06
 Reference value :  7.00973e-06
 Reference value :  7.01072e-06
 Reference value :  7.01207e-06
 Reference value :  7.01371e-06
 Reference value :  7.01601e-06
 Reference value :  7.01763e-06
 Reference value :  7.01941e-06
 Reference value :  7.02099e-06
 Reference value :  7.02281e-06
 Reference value :  7.02436e-06
 Reference value :  7.02600e-06
 Reference value :  7.02756e-06
 Reference value :  7.02902e-06
 Reference value :  7.03056e-06
 Reference value :  7.03234e-06
 Reference value :  7.03476e-06
 Reference value :  7.03728e-06
 Reference value :  7.04160e-06
 Reference value :  7.04601e-06
 Reference value :  7.05295e-06
 Reference value :  7.06115e-06
 Reference value :  7.07754e-06
 Reference value :  7.10202e-06
 Reference value :  7.14532e-06
 Reference value :  7.22388e-06
 Reference value :  7.25010e-06
 Reference value :  7.25011e-06
 Reference value :  7.25013e-06
 Reference value :  7.25017e-06
 Reference value :  7.25020e-06
 Reference value :  7.25020e-06
 Reference value :  7.25020e-06
 Reference value :  7.25021e-06
 Reference value :  7.25021e-06
 Reference value :  7.25022e-06
 Reference value :  7.25025e-06
 Reference value :  7.25030e-06
 Reference value :  7.25039e-06
 Reference value :  7.25059e-06
 Reference value :  7.25093e-06
 Reference value :  7.25154e-06
 Reference value :  7.25217e-06
 Reference value :  7.25294e-06
 Reference value :  7.25375e-06
 Reference value :  7.25482e-06
 Reference value :  7.25571e-06
 Reference value :  7.25675e-06
 Reference value :  7.25775e-06
 Reference value :  7.25879e-06
 Reference value :  7.26051e-06
 Reference value :  7.26215e-06
 Reference value :  7.26499e-06
 Reference value :  7.26819e-06
 Reference value :  7.27325e-06
 Reference value :  7.28325e-06
 Reference value :  7.30240e-06
 Reference value :  7.33992e-06
 Reference value :  7.41496e-06
 Reference value :  7.50000e-06
 Reference value :  7.50001e-06
 Reference value :  7.50003e-06
 Reference value :  7.50007e-06
 Reference value :  7.50010e-06
 Reference value :  7.50010e-06
 Reference value :  7.50011e-06
 Reference value :  7.50013e-06
 Reference value :  7.50016e-06
 Reference value :  7.50023e-06
 Reference value :  7.50037e-06
 Reference value :  7.50056e-06
 Reference value :  7.50093e-06
 Reference value :  7.50152e-06
 Reference value :  7.50214e-06
 Reference value :  7.50278e-06
 Reference value :  7.50356e-06
 Reference value :  7.50429e-06
 Reference value :  7.50514e-06
 Reference value :  7.50604e-06
 Reference value :  7.50709e-06
 Reference value :  7.50845e-06
 Reference value :  7.50981e-06
 Reference value :  7.51142e-06
 Reference value :  7.51279e-06
 Reference value :  7.51425e-06
 Reference value :  7.51568e-06
 Reference value :  7.51737e-06
 Reference value :  7.51915e-06
 Reference value :  7.52102e-06
 Reference value :  7.52476e-06
 Reference value :  7.53223e-06
 Reference value :  7.54511e-06
 Reference value :  7.57087e-06
 Reference value :  7.62239e-06
 Reference value :  7.72542e-06
 Reference value :  7.75010e-06
 Reference value :  7.75011e-06
 Reference value :  7.75013e-06
 Reference value :  7.75017e-06
 Reference value :  7.75020e-06
 Reference value :  7.75020e-06
 Reference value :  7.75020e-06
 Reference value :  7.75021e-06
 Reference value :  7.75021e-06
 Reference value :  7.75022e-06
 Reference value :  7.75025e-06
 Reference value :  7.75030e-06
 Reference value :  7.75039e-06
 Reference value :  7.75059e-06
 Reference value :  7.75093e-06
 Reference value :  7.75154e-06
 Reference value :  7.75217e-06
 Reference value :  7.75294e-06
 Reference value :  7.75375e-06
 Reference value :  7.75482e-06
 Reference value :  7.75571e-06
 Reference value :  7.75676e-06
 Reference value :  7.75767e-06
 Reference value :  7.75864e-06
 Reference value :  7.75976e-06
 Reference value :  7.76102e-06
 Reference value :  7.76229e-06
 Reference value :  7.76410e-06
 Reference value :  7.76618e-06
 Reference value :  7.76892e-06
 Reference value :  7.77243e-06
 Reference value :  7.77742e-06
 Reference value :  7.78741e-06
 Reference value :  7.80256e-06
 Reference value :  7.83285e-06
 Reference value :  7.89343e-06
 Reference value :  8.00000e-06
 Reference value :  8.00001e-06
 Reference value :  8.00003e-06
 Reference value :  8.00007e-06
 Reference value :  8.00010e-06
 Reference value :  8.00010e-06
 Reference value :  8.00011e-06
 Reference value :  8.00013e-06
 Reference value :  8.00016e-06
 Reference value :  8.00023e-06
 Reference value :  8.00037e-06
 Reference value :  8.00055e-06
 Reference value :  8.00092e-06
 Reference value :  8.00151e-06
 Reference value :  8.00214e-06
 Reference value :  8.00283e-06
 Reference value :  8.00356e-06
 Reference value :  8.00432e-06
 Reference value :  8.00515e-06
 Reference value :  8.00606e-06
 Reference value :  8.00699e-06
 Reference value :  8.00784e-06
 Reference value :  8.00873e-06
 Reference value :  8.00969e-06
 Reference value :  8.01067e-06
 Reference value :  8.01209e-06
 Reference value :  8.01356e-06
 Reference value :  8.01608e-06
 Reference value :  8.01767e-06
 Reference value :  8.01954e-06
 Reference value :  8.02118e-06
 Reference value :  8.02316e-06
 Reference value :  8.02512e-06
 Reference value :  8.02738e-06
 Reference value :  8.02943e-06
 Reference value :  8.03161e-06
 Reference value :  8.03436e-06
 Reference value :  8.03641e-06
 Reference value :  8.03876e-06
 Reference value :  8.04143e-06
 Reference value :  8.04426e-06
 Reference value :  8.04862e-06
 Reference value :  8.05353e-06
 Reference value :  8.05968e-06
 Reference value :  8.07197e-06
 Reference value :  8.09657e-06
 Reference value :  8.13835e-06
 Reference value :  8.22190e-06
 Reference value :  8.25010e-06
 Reference value :  8.25011e-06
 Reference value :  8.25013e-06
 Reference value :  8.25017e-06
 Reference value :  8.25020e-06
 Reference value :  8.25020e-06
 Reference value :  8.25020e-06
 Reference value :  8.25021e-06
 Reference value :  8.25021e-06
 Reference value :  8.25022e-06
 Reference value :  8.25025e-06
 Reference value :  8.25030e-06
 Reference value :  8.25039e-06
 Reference value :  8.25059e-06
 Reference value :  8.25097e-06
 Reference value :  8.25154e-06
 Reference value :  8.25221e-06
 Reference value :  8.25295e-06
 Reference value :  8.25379e-06
 Reference value :  8.25485e-06
 Reference value :  8.25616e-06
 Reference value :  8.25753e-06
 Reference value :  8.25911e-06
 Reference value :  8.26083e-06
 Reference value :  8.26340e-06
 Reference value :  8.26637e-06
 Reference value :  8.27042e-06
 Reference value :  8.27625e-06
 Reference value :  8.28792e-06
 Reference value :  8.31126e-06
 Reference value :  8.35756e-06
 Reference value :  8.45017e-06
 Reference value :  8.50000e-06
 Reference value :  8.50001e-06
 Reference value :  8.50003e-06
 Reference value :  8.50007e-06
 Reference value :  8.50010e-06
 Reference value :  8.50010e-06
 Reference value :  8.50011e-06
 Reference value :  8.50013e-06
 Reference value :  8.50016e-06
 Reference value :  8.50023e-06
 Reference value :  8.50037e-06
 Reference value :  8.50064e-06
 Reference value :  8.50111e-06
 Reference value :  8.50187e-06
 Reference value :  8.50271e-06
 Reference value :  8.50338e-06
 Reference value :  8.50424e-06
 Reference value :  8.50514e-06
 Reference value :  8.50606e-06
 Reference value :  8.50708e-06
 Reference value :  8.50859e-06
 Reference value :  8.51017e-06
 Reference value :  8.51269e-06
 Reference value :  8.51434e-06
 Reference value :  8.51623e-06
 Reference value :  8.51914e-06
 Reference value :  8.52188e-06
 Reference value :  8.52525e-06
 Reference value :  8.53198e-06
 Reference value :  8.53853e-06
 Reference value :  8.54333e-06
 Reference value :  8.54716e-06
 Reference value :  8.55073e-06
 Reference value :  8.55378e-06
 Reference value :  8.55659e-06
 Reference value :  8.55947e-06
 Reference value :  8.56276e-06
 Reference value :  8.56825e-06
 Reference value :  8.57395e-06
 Reference value :  8.58092e-06
 Reference value :  8.58820e-06
 Reference value :  8.59343e-06
 Reference value :  8.59884e-06
 Reference value :  8.60324e-06
 Reference value :  8.60867e-06
 Reference value :  8.61686e-06
 Reference value :  8.62362e-06
 Reference value :  8.63144e-06
 Reference value :  8.64183e-06
 Reference value :  8.65922e-06
 Reference value :  8.68305e-06
 Reference value :  8.70905e-06
 Reference value :  8.73937e-06
 Reference value :  8.75010e-06
 Reference value :  8.75011e-06
 Reference value :  8.75013e-06
 Reference value :  8.75017e-06
 Reference value :  8.75020e-06
 Reference value :  8.75020e-06
 Reference value :  8.75020e-06
 Reference value :  8.75021e-06
 Reference value :  8.75021e-06
 Reference value :  8.75022e-06
 Reference value :  8.75025e-06
 Reference value :  8.75030e-06
 Reference value :  8.75040e-06
 Reference value :  8.75059e-06
 Reference value :  8.75098e-06
 Reference value :  8.75155e-06
 Reference value :  8.75223e-06
 Reference value :  8.75299e-06
 Reference value :  8.75380e-06
 Reference value :  8.75492e-06
 Reference value :  8.75579e-06
 Reference value :  8.75680e-06
 Reference value :  8.75776e-06
 Reference value :  8.75878e-06
 Reference value :  8.76022e-06
 Reference value :  8.76210e-06
 Reference value :  8.76454e-06
 Reference value :  8.76790e-06
 Reference value :  8.77252e-06
 Reference value :  8.78175e-06
 Reference value :  8.79962e-06
 Reference value :  8.83038e-06
 Reference value :  8.89189e-06
 Reference value :  9.00000e-06
 Reference value :  9.00001e-06
 Reference value :  9.00003e-06
 Reference value :  9.00007e-06
 Reference value :  9.00010e-06
 Reference value :  9.00010e-06
 Reference value :  9.00011e-06
 Reference value :  9.00013e-06
 Reference value :  9.00016e-06
 Reference value :  9.00023e-06
 Reference value :  9.00037e-06
 Reference value :  9.00056e-06
 Reference value :  9.00094e-06
 Reference value :  9.00154e-06
 Reference value :  9.00216e-06
 Reference value :  9.00280e-06
 Reference value :  9.00359e-06
 Reference value :  9.00433e-06
 Reference value :  9.00520e-06
 Reference value :  9.00612e-06
 Reference value :  9.00707e-06
 Reference value :  9.00845e-06
 Reference value :  9.00974e-06
 Reference value :  9.01232e-06
 Reference value :  9.01563e-06
 Reference value :  9.01799e-06
 Reference value :  9.02059e-06
 Reference value :  9.02350e-06
 Reference value :  9.02647e-06
 Reference value :  9.02967e-06
 Reference value :  9.03539e-06
 Reference value :  9.04280e-06
 Reference value :  9.05524e-06
 Reference value :  9.07670e-06
 Reference value :  9.11221e-06
 Reference value :  9.18322e-06
 Reference value :  9.25010e-06
 Reference value :  9.25011e-06
 Reference value :  9.25013e-06
 Reference value :  9.25017e-06
 Reference value :  9.25020e-06
 Reference value :  9.25020e-06
 Reference value :  9.25020e-06
 Reference value :  9.25021e-06
 Reference value :  9.25021e-06
 Reference value :  9.25022e-06
 Reference value :  9.25025e-06
 Reference value :  9.25030e-06
 Reference value :  9.25039e-06
 Reference value :  9.25059e-06
 Reference value :  9.25097e-06
 Reference value :  9.25156e-06
 Reference value :  9.25222e-06
 Reference value :  9.25298e-06
 Reference value :  9.25382e-06
 Reference value :  9.25491e-06
 Reference value :  9.25580e-06
 Reference value :  9.25686e-06
 Reference value :  9.25775e-06
 Reference value :  9.25874e-06
 Reference value :  9.25985e-06
 Reference value :  9.26094e-06
 Reference value :  9.26208e-06
 Reference value :  9.26351e-06
 Reference value :  9.26504e-06
 Reference value :  9.26770e-06
 Reference value :  9.27031e-06
 Reference value :  9.27477e-06
 Reference value :  9.28047e-06
 Reference value :  9.28871e-06
 Reference value :  9.30090e-06
 Reference value :  9.31786e-06
 Reference value :  9.34318e-06
 Reference value :  9.37944e-06
 Reference value :  9.43244e-06
 Reference value :  9.50000e-06
 Reference value :  9.50001e-06
 Reference value :  9.50003e-06
 Reference value :  9.50007e-06
 Reference value :  9.50010e-06
 Reference value :  9.50010e-06
 Reference value :  9.50011e-06
 Reference value :  9.50013e-06
 Reference value :  9.50016e-06
 Reference value :  9.50023e-06
 Reference value :  9.50037e-06
 Reference value :  9.50056e-06
 Reference value :  9.50094e-06
 Reference value :  9.50154e-06
 Reference value :  9.50216e-06
 Reference value :  9.50285e-06
 Reference value :  9.50356e-06
 Reference value :  9.50432e-06
 Reference value :  9.50516e-06
 Reference value :  9.50610e-06
 Reference value :  9.50693e-06
 Reference value :  9.50780e-06
 Reference value :  9.50864e-06
 Reference value :  9.50951e-06
 Reference value :  9.51041e-06
 Reference value :  9.51175e-06
 Reference value :  9.51299e-06
 Reference value :  9.51530e-06
 Reference value :  9.51759e-06
 Reference value :  9.51942e-06
 Reference value :  9.52140e-06
 Reference value :  9.52327e-06
 Reference value :  9.52517e-06
 Reference value :  9.52683e-06
 Reference value :  9.52853e-06
 Reference value :  9.53019e-06
 Reference value :  9.53221e-06
 Reference value :  9.53440e-06
 Reference value :  9.53715e-06
 Reference value :  9.54107e-06
 Reference value :  9.54731e-06
 Reference value :  9.55718e-06
 Reference value :  9.57394e-06
 Reference value :  9.60219e-06
 Reference value :  9.65067e-06
 Reference value :  9.73449e-06
 Reference value :  9.75010e-06
 Reference value :  9.75011e-06
 Reference value :  9.75013e-06
 Reference value :  9.75017e-06
 Reference value :  9.75020e-06
 Reference value :  9.75020e-06
 Reference value :  9.75020e-06
 Reference value :  9.75021e-06
 Reference value :  9.75021e-06
 Reference value :  9.75022e-06
 Reference value :  9.75025e-06
 Reference value :  9.75030e-06
 Reference value :  9.75039e-06
 Reference value :  9.75059e-06
 Reference value :  9.75093e-06
 Reference value :  9.75155e-06
 Reference value :  9.75217e-06
 Reference value :  9.75296e-06
 Reference value :  9.75376e-06
 Reference value :  9.75484e-06
 Reference value :  9.75577e-06
 Reference value :  9.75682e-06
 Reference value :  9.75796e-06
 Reference value :  9.75899e-06
 Reference value :  9.76079e-06
 Reference value :  9.76253e-06
 Reference value :  9.76532e-06
 Reference value :  9.76883e-06
 Reference value :  9.77406e-06
 Reference value :  9.78452e-06
 Reference value :  9.80275e-06
 Reference value :  9.83589e-06
 Reference value :  9.90218e-06
 Reference value :  1.00000e-05
 Reference value :  1.00000e-05
 Reference value :  1.00000e-05
 Reference value :  1.00001e-05
 Reference value :  1.00001e-05
 Reference value :  1.00001e-05
 Reference value :  1.00001e-05
 Reference value :  1.00001e-05
 Reference value :  1.00002e-05
 Reference value :  1.00002e-05
 Reference value :  1.00004e-05
 Reference value :  1.00006e-05
 Reference value :  1.00009e-05
 Reference value :  1.00016e-05
 Reference value :  1.00022e-05
 Reference value :  1.00029e-05
 Reference value :  1.00036e-05
 Reference value :  1.00043e-05
 Reference value :  1.00052e-05
 Reference value :  1.00061e-05
 Reference value :  1.00071e-05
 Reference value :  1.00084e-05
 Reference value :  1.00098e-05
 Reference value :  1.00114e-05
 Reference value :  1.00128e-05
 Reference value :  1.00142e-05
 Reference value :  1.00163e-05
 Reference value :  1.00182e-05
 Reference value :  1.00202e-05
 Reference value :  1.00234e-05
 Reference value :  1.00262e-05
 Reference value :  1.00317e-05
 Reference value :  1.00391e-05
 Reference value :  1.00511e-05
 Reference value :  1.00722e-05
 Reference value :  1.01056e-05
 Reference value :  1.01655e-05
 Reference value :  1.02501e-05
 Reference value :  1.02501e-05
 Reference value :  1.02501e-05
 Reference value :  1.02502e-05
 Reference value :  1.02502e-05
 Reference value :  1.02502e-05
 Reference value :  1.02502e-05
 Reference value :  1.02502e-05
 Reference value :  1.02502e-05
 Reference value :  1.02502e-05
 Reference value :  1.02502e-05
 Reference value :  1.02503e-05
 Reference value :  1.02504e-05
 Reference value :  1.02506e-05
 Reference value :  1.02509e-05
 Reference value :  1.02516e-05
 Reference value :  1.02522e-05
 Reference value :  1.02530e-05
 Reference value :  1.02538e-05
 Reference value :  1.02548e-05
 Reference value :  1.02558e-05
 Reference value :  1.02568e-05
 Reference value :  1.02578e-05
 Reference value :  1.02587e-05
 Reference value :  1.02599e-05
 Reference value :  1.02611e-05
 Reference value :  1.02624e-05
 Reference value :  1.02642e-05
 Reference value :  1.02665e-05
 Reference value :  1.02692e-05
 Reference value :  1.02729e-05
 Reference value :  1.02781e-05
 Reference value :  1.02884e-05
 Reference value :  1.03070e-05
 Reference value :  1.03443e-05
 Reference value :  1.04190e-05
 Reference value :  1.05000e-05
 Reference value :  1.05000e-05
 Reference value :  1.05000e-05
 Reference value :  1.05001e-05
 Reference value :  1.05001e-05
 Reference value :  1.05001e-05
 Reference value :  1.05001e-05
 Reference value :  1.05001e-05
 Reference value :  1.05002e-05
 Reference value :  1.05002e-05
 Reference value :  1.05004e-05
 Reference value :  1.05006e-05
 Reference value :  1.05009e-05
 Reference value :  1.05016e-05
 Reference value :  1.05022e-05
 Reference value :  1.05029e-05
 Reference value :  1.05036e-05
 Reference value :  1.05044e-05
 Reference value :  1.05052e-05
 Reference value :  1.05061e-05
 Reference value :  1.05070e-05
 Reference value :  1.05079e-05
 Reference value :  1.05087e-05
 Reference value :  1.05097e-05
 Reference value :  1.05106e-05
 Reference value :  1.05118e-05
 Reference value :  1.05131e-05
 Reference value :  1.05154e-05
 Reference value :  1.05179e-05
 Reference value :  1.05197e-05
 Reference value :  1.05217e-05
 Reference value :  1.05237e-05
 Reference value :  1.05252e-05
 Reference value :  1.05265e-05
 Reference value :  1.05280e-05
 Reference value :  1.05296e-05
 Reference value :  1.05315e-05
 Reference value :  1.05333e-05
 Reference value :  1.05362e-05
 Reference value :  1.05391e-05
 Reference value :  1.05451e-05
 Reference value :  1.05553e-05
 Reference value :  1.05695e-05
 Reference value :  1.05945e-05
 Reference value :  1.06357e-05
 Reference value :  1.06939e-05
 Reference value :  1.07501e-05
 Reference value :  1.07501e-05
 Reference value :  1.07501e-05
 Reference value :  1.07502e-05
 Reference value :  1.07502e-05
 Reference value :  1.07502e-05
 Reference value :  1.07502e-05
 Reference value :  1.07502e-05
 Reference value :  1.07502e-05
 Reference value :  1.07502e-05
 Reference value :  1.07502e-05
 Reference value :  1.07503e-05
 Reference value :  1.07504e-05
 Reference value :  1.07506e-05
 Reference value :  1.07509e-05
 Reference value :  1.07515e-05
 Reference value :  1.07522e-05
 Reference value :  1.07529e-05
 Reference value :  1.07538e-05
 Reference value :  1.07548e-05
 Reference value :  1.07558e-05
 Reference value :  1.07568e-05
 Reference value :  1.07579e-05
 Reference value :  1.07590e-05
 Reference value :  1.07608e-05
 Reference value :  1.07625e-05
 Reference value :  1.07653e-05
 Reference value :  1.07688e-05
 Reference value :  1.07740e-05
 Reference value :  1.07844e-05
 Reference value :  1.08028e-05
 Reference value :  1.08362e-05
 Reference value :  1.09030e-05
 Reference value :  1.09607e-05
 Reference value :  1.10000e-05
 Reference value :  1.10000e-05
 Reference value :  1.10000e-05
 Reference value :  1.10001e-05
 Reference value :  1.10001e-05
 Reference value :  1.10001e-05
 Reference value :  1.10001e-05
 Reference value :  1.10001e-05
 Reference value :  1.10002e-05
 Reference value :  1.10002e-05
 Reference value :  1.10004e-05
 Reference value :  1.10006e-05
 Reference value :  1.10009e-05
 Reference value :  1.10016e-05
 Reference value :  1.10022e-05
 Reference value :  1.10029e-05
 Reference value :  1.10036e-05
 Reference value :  1.10043e-05
 Reference value :  1.10052e-05
 Reference value :  1.10061e-05
 Reference value :  1.10071e-05
 Reference value :  1.10085e-05
 Reference value :  1.10098e-05
 Reference value :  1.10114e-05
 Reference value :  1.10128e-05
 Reference value :  1.10143e-05
 Reference value :  1.10163e-05
 Reference value :  1.10182e-05
 Reference value :  1.10203e-05
 Reference value :  1.10231e-05
 Reference value :  1.10265e-05
 Reference value :  1.10321e-05
 Reference value :  1.10406e-05
 Reference value :  1.10549e-05
 Reference value :  1.10797e-05
 Reference value :  1.11218e-05
 Reference value :  1.11996e-05
 Reference value :  1.12501e-05
 Reference value :  1.12501e-05
 Reference value :  1.12501e-05
 Reference value :  1.12502e-05
 Reference value :  1.12502e-05
 Reference value :  1.12502e-05
 Reference value :  1.12502e-05
 Reference value :  1.12502e-05
 Reference value :  1.12502e-05
 Reference value :  1.12502e-05
 Reference value :  1.12502e-05
 Reference value :  1.12503e-05
 Reference value :  1.12504e-05
 Reference value :  1.12506e-05
 Reference value :  1.12509e-05
 Reference value :  1.12515e-05
 Reference value :  1.12522e-05
 Reference value :  1.12529e-05
 Reference value :  1.12538e-05
 Reference value :  1.12548e-05
 Reference value :  1.12558e-05
 Reference value :  1.12568e-05
 Reference value :  1.12578e-05
 Reference value :  1.12587e-05
 Reference value :  1.12599e-05
 Reference value :  1.12612e-05
 Reference value :  1.12625e-05
 Reference value :  1.12642e-05
 Reference value :  1.12665e-05
 Reference value :  1.12693e-05
 Reference value :  1.12730e-05
 Reference value :  1.12782e-05
 Reference value :  1.12886e-05
 Reference value :  1.13081e-05
 Reference value :  1.13470e-05
 Reference value :  1.14248e-05
 Reference value :  1.15000e-05
 Reference value :  1.15000e-05
 Reference value :  1.15000e-05
 Reference value :  1.15001e-05
 Reference value :  1.15001e-05
 Reference value :  1.15001e-05
 Reference value :  1.15001e-05
 Reference value :  1.15001e-05
 Reference value :  1.15002e-05
 Reference value :  1.15002e-05
 Reference value :  1.15004e-05
 Reference value :  1.15006e-05
 Reference value :  1.15009e-05
 Reference value :  1.15016e-05
 Reference value :  1.15022e-05
 Reference value :  1.15029e-05
 Reference value :  1.15036e-05
 Reference value :  1.15044e-05
 Reference value :  1.15052e-05
 Reference value :  1.15061e-05
 Reference value :  1.15071e-05
 Reference value :  1.15079e-05
 Reference value :  1.15088e-05
 Reference value :  1.15098e-05
 Reference value :  1.15108e-05
 Reference value :  1.15121e-05
 Reference value :  1.15135e-05
 Reference value :  1.15159e-05
 Reference value :  1.15175e-05
 Reference value :  1.15193e-05
 Reference value :  1.15209e-05
 Reference value :  1.15227e-05
 Reference value :  1.15239e-05
 Reference value :  1.15252e-05
 Reference value :  1.15267e-05
 Reference value :  1.15282e-05
 Reference value :  1.15296e-05
 Reference value :  1.15313e-05
 Reference value :  1.15331e-05
 Reference value :  1.15360e-05
 Reference value :  1.15394e-05
 Reference value :  1.15461e-05
 Reference value :  1.15559e-05
 Reference value :  1.15718e-05
 Reference value :  1.15986e-05
 Reference value :  1.16236e-05
 Reference value :  1.16497e-05
 Reference value :  1.16704e-05
 Reference value :  1.16803e-05
 Reference value :  1.16896e-05
 Reference value :  1.16987e-05
 Reference value :  1.17168e-05
 Reference value :  1.17405e-05
 Reference value :  1.17501e-05
 Reference value :  1.17501e-05
 Reference value :  1.17501e-05
 Reference value :  1.17502e-05
 Reference value :  1.17502e-05
 Reference value :  1.17502e-05
 Reference value :  1.17502e-05
 Reference value :  1.17502e-05
 Reference value :  1.17502e-05
 Reference value :  1.17502e-05
 Reference value :  1.17502e-05
 Reference value :  1.17503e-05
 Reference value :  1.17504e-05
 Reference value :  1.17506e-05
 Reference value :  1.17509e-05
 Reference value :  1.17515e-05
 Reference value :  1.17522e-05
 Reference value :  1.17529e-05
 Reference value :  1.17538e-05
 Reference value :  1.17548e-05
 Reference value :  1.17558e-05
 Reference value :  1.17569e-05
 Reference value :  1.17580e-05
 Reference value :  1.17590e-05
 Reference value :  1.17608e-05
 Reference value :  1.17626e-05
 Reference value :  1.17654e-05
 Reference value :  1.17689e-05
 Reference value :  1.17742e-05
 Reference value :  1.17848e-05
 Reference value :  1.18030e-05
 Reference value :  1.18361e-05
 Reference value :  1.19024e-05
 Reference value :  1.20000e-05
 Reference value :  1.20000e-05
 Reference value :  1.20000e-05
 Reference value :  1.20001e-05
 Reference value :  1.20001e-05
 Reference value :  1.20001e-05
 Reference value :  1.20001e-05
 Reference value :  1.20001e-05
 Reference value :  1.20002e-05
 Reference value :  1.20002e-05
 Reference value :  1.20004e-05
 Reference value :  1.20006e-05
 Reference value :  1.20009e-05
 Reference value :  1.20016e-05
 Reference value :  1.20022e-05
 Reference value :  1.20029e-05
 Reference value :  1.20036e-05
 Reference value :  1.20044e-05
 Reference value :  1.20052e-05
 Reference value :  1.20062e-05
 Reference value :  1.20071e-05
 Reference value :  1.20085e-05
 Reference value :  1.20098e-05
 Reference value :  1.20114e-05
 Reference value :  1.20129e-05
 Reference value :  1.20144e-05
 Reference value :  1.20160e-05
 Reference value :  1.20177e-05
 Reference value :  1.20194e-05
 Reference value :  1.20214e-05
 Reference value :  1.20252e-05
 Reference value :  1.20329e-05
 Reference value :  1.20458e-05
 Reference value :  1.20717e-05
 Reference value :  1.21235e-05
 Reference value :  1.22271e-05
 Reference value :  1.22501e-05
 Reference value :  1.22501e-05
 Reference value :  1.22501e-05
 Reference value :  1.22502e-05
 Reference value :  1.22502e-05
 Reference value :  1.22502e-05
 Reference value :  1.22502e-05
 Reference value :  1.22502e-05
 Reference value :  1.22502e-05
 Reference value :  1.22502e-05
 Reference value :  1.22502e-05
 Reference value :  1.22503e-05
 Reference value :  1.22504e-05
 Reference value :  1.22506e-05
 Reference value :  1.22509e-05
 Reference value :  1.22515e-05
 Reference value :  1.22522e-05
 Reference value :  1.22529e-05
 Reference value :  1.22538e-05
 Reference value :  1.22548e-05
 Reference value :  1.22558e-05
 Reference value :  1.22568e-05
 Reference value :  1.22578e-05
 Reference value :  1.22588e-05
 Reference value :  1.22599e-05
 Reference value :  1.22612e-05
 Reference value :  1.22637e-05
 Reference value :  1.22666e-05
 Reference value :  1.22711e-05
 Reference value :  1.22772e-05
 Reference value :  1.22895e-05
 Reference value :  1.23140e-05
 Reference value :  1.23631e-05
 Reference value :  1.24613e-05
 Reference value :  1.25000e-05
 Reference value :  1.25000e-05
 Reference value :  1.25000e-05
 Reference value :  1.25001e-05
 Reference value :  1.25001e-05
 Reference value :  1.25001e-05
 Reference value :  1.25001e-05
 Reference value :  1.25001e-05
 Reference value :  1.25002e-05
 Reference value :  1.25002e-05
 Reference value :  1.25004e-05
 Reference value :  1.25006e-05
 Reference value :  1.25009e-05
 Reference value :  1.25016e-05
 Reference value :  1.25022e-05
 Reference value :  1.25029e-05
 Reference value :  1.25036e-05
 Reference value :  1.25044e-05
 Reference value :  1.25052e-05
 Reference value :  1.25061e-05
 Reference value :  1.25072e-05
 Reference value :  1.25082e-05
 Reference value :  1.25091e-05
 Reference value :  1.25101e-05
 Reference value :  1.25112e-05
 Reference value :  1.25125e-05
 Reference value :  1.25144e-05
 Reference value :  1.25173e-05
 Reference value :  1.25202e-05
 Reference value :  1.25225e-05
 Reference value :  1.25245e-05
 Reference value :  1.25263e-05
 Reference value :  1.25283e-05
 Reference value :  1.25302e-05
 Reference value :  1.25323e-05
 Reference value :  1.25347e-05
 Reference value :  1.25380e-05
 Reference value :  1.25419e-05
 Reference value :  1.25494e-05
 Reference value :  1.25570e-05
 Reference value :  1.25642e-05
 Reference value :  1.25700e-05
 Reference value :  1.25772e-05
 Reference value :  1.25822e-05
 Reference value :  1.25877e-05
 Reference value :  1.25932e-05
 Reference value :  1.25993e-05
 Reference value :  1.26078e-05
 Reference value :  1.26146e-05
 Reference value :  1.26227e-05
 Reference value :  1.26347e-05
 Reference value :  1.26541e-05
 Reference value :  1.26811e-05
 Reference value :  1.27254e-05
 Reference value :  1.27501e-05
 Reference value :  1.27501e-05
 Reference value :  1.27501e-05
 Reference value :  1.27502e-05
 Reference value :  1.27502e-05
 Reference value :  1.27502e-05
 Reference value :  1.27502e-05
 Reference value :  1.27502e-05
 Reference value :  1.27502e-05
 Reference value :  1.27502e-05
 Reference value :  1.27502e-05
 Reference value :  1.27503e-05
 Reference value :  1.27504e-05
 Reference value :  1.27506e-05
 Reference value :  1.27509e-05
 Reference value :  1.27515e-05
 Reference value :  1.27522e-05
 Reference value :  1.27529e-05
 Reference value :  1.27537e-05
 Reference value :  1.27548e-05
 Reference value :  1.27557e-05
 Reference value :  1.27567e-05
 Reference value :  1.27577e-05
 Reference value :  1.27587e-05
 Reference value :  1.27604e-05
 Reference value :  1.27620e-05
 Reference value :  1.27649e-05
 Reference value :  1.27680e-05
 Reference value :  1.27730e-05
 Reference value :  1.27819e-05
 Reference value :  1.27995e-05
 Reference value :  1.28348e-05
 Reference value :  1.29055e-05
 Reference value :  1.30000e-05
 Reference value :  1.30000e-05
 Reference value :  1.30000e-05
 Reference value :  1.30001e-05
 Reference value :  1.30001e-05
 Reference value :  1.30001e-05
 Reference value :  1.30001e-05
 Reference value :  1.30001e-05
 Reference value :  1.30002e-05
 Reference value :  1.30002e-05
 Reference value :  1.30004e-05
 Reference value :  1.30006e-05
 Reference value :  1.30009e-05
 Reference value :  1.30016e-05
 Reference value :  1.30022e-05
 Reference value :  1.30029e-05
 Reference value :  1.30036e-05
 Reference value :  1.30043e-05
 Reference value :  1.30052e-05
 Reference value :  1.30061e-05
 Reference value :  1.30070e-05
 Reference value :  1.30084e-05
 Reference value :  1.30096e-05
 Reference value :  1.30112e-05
 Reference value :  1.30125e-05
 Reference value :  1.30139e-05
 Reference value :  1.30153e-05
 Reference value :  1.30170e-05
 Reference value :  1.30190e-05
 Reference value :  1.30208e-05
 Reference value :  1.30244e-05
 Reference value :  1.30316e-05
 Reference value :  1.30440e-05
 Reference value :  1.30688e-05
 Reference value :  1.31183e-05
 Reference value :  1.32174e-05
 Reference value :  1.32501e-05
 Reference value :  1.32501e-05
 Reference value :  1.32501e-05
 Reference value :  1.32502e-05
 Reference value :  1.32502e-05
 Reference value :  1.32502e-05
 Reference value :  1.32502e-05
 Reference value :  1.32502e-05
 Reference value :  1.32502e-05
 Reference value :  1.32502e-05
 Reference value :  1.32502e-05
 Reference value :  1.32503e-05
 Reference value :  1.32504e-05
 Reference value :  1.32506e-05
 Reference value :  1.32509e-05
 Reference value :  1.32515e-05
 Reference value :  1.32522e-05
 Reference value :  1.32529e-05
 Reference value :  1.32537e-05
 Reference value :  1.32548e-05
 Reference value :  1.32557e-05
 Reference value :  1.32568e-05
 Reference value :  1.32577e-05
 Reference value :  1.32587e-05
 Reference value :  1.32599e-05
 Reference value :  1.32611e-05
 Reference value :  1.32624e-05
 Reference value :  1.32642e-05
 Reference value :  1.32664e-05
 Reference value :  1.32691e-05
 Reference value :  1.32727e-05
 Reference value :  1.32779e-05
 Reference value :  1.32881e-05
 Reference value :  1.33044e-05
 Reference value :  1.33369e-05
 Reference value :  1.34020e-05
 Reference value :  1.35000e-05
 Reference value :  1.35000e-05
 Reference value :  1.35000e-05
 Reference value :  1.35001e-05
 Reference value :  1.35001e-05
 Reference value :  1.35001e-05
 Reference value :  1.35001e-05
 Reference value :  1.35001e-05
 Reference value :  1.35002e-05
 Reference value :  1.35002e-05
 Reference value :  1.35004e-05
 Reference value :  1.35006e-05
 Reference value :  1.35009e-05
 Reference value :  1.35016e-05
 Reference value :  1.35022e-05
 Reference value :  1.35029e-05
 Reference value :  1.35036e-05
 Reference value :  1.35044e-05
 Reference value :  1.35052e-05
 Reference value :  1.35061e-05
 Reference value :  1.35070e-05
 Reference value :  1.35079e-05
 Reference value :  1.35088e-05
 Reference value :  1.35098e-05
 Reference value :  1.35108e-05
 Reference value :  1.35122e-05
 Reference value :  1.35139e-05
 Reference value :  1.35154e-05
 Reference value :  1.35171e-05
 Reference value :  1.35188e-05
 Reference value :  1.35205e-05
 Reference value :  1.35223e-05
 Reference value :  1.35237e-05
 Reference value :  1.35250e-05
 Reference value :  1.35267e-05
 Reference value :  1.35283e-05
 Reference value :  1.35299e-05
 Reference value :  1.35319e-05
 Reference value :  1.35339e-05
 Reference value :  1.35369e-05
 Reference value :  1.35407e-05
 Reference value :  1.35478e-05
 Reference value :  1.35596e-05
 Reference value :  1.35766e-05
 Reference value :  1.35886e-05
 Reference value :  1.36022e-05
 Reference value :  1.36152e-05
 Reference value :  1.36413e-05
 Reference value :  1.36773e-05
 Reference value :  1.37351e-05
 Reference value :  1.37501e-05
 Reference value :  1.37501e-05
 Reference value :  1.37501e-05
 Reference value :  1.37502e-05
 Reference value :  1.37502e-05
 Reference value :  1.37502e-05
 Reference value :  1.37502e-05
 Reference value :  1.37502e-05
 Reference value :  1.37502e-05
 Reference value :  1.37502e-05
 Reference value :  1.37502e-05
 Reference value :  1.37503e-05
 Reference value :  1.37504e-05
 Reference value :  1.37506e-05
 Reference value :  1.37509e-05
 Reference value :  1.37515e-05
 Reference value :  1.37522e-05
 Reference value :  1.37529e-05
 Reference value :  1.37537e-05
 Reference value :  1.37548e-05
 Reference value :  1.37558e-05
 Reference value :  1.37568e-05
 Reference value :  1.37579e-05
 Reference value :  1.37590e-05
 Reference value :  1.37608e-05
 Reference value :  1.37625e-05
 Reference value :  1.37653e-05
 Reference value :  1.37688e-05
 Reference value :  1.37740e-05
 Reference value :  1.37844e-05
 Reference value :  1.38029e-05
 Reference value :  1.38364e-05
 Reference value :  1.39036e-05
 Reference value :  1.40000e-05
 Reference value :  1.40000e-05
 Reference value :  1.40000e-05
 Reference value :  1.40001e-05
 Reference value :  1.40001e-05
 Reference value :  1.40001e-05
 Reference value :  1.40001e-05
 Reference value :  1.40001e-05
 Reference value :  1.40002e-05
 Reference value :  1.40002e-05
 Reference value :  1.40004e-05
 Reference value :  1.40006e-05
 Reference value :  1.40009e-05
 Reference value :  1.40016e-05
 Reference value :  1.40022e-05
 Reference value :  1.40029e-05
 Reference value :  1.40036e-05
 Reference value :  1.40043e-05
 Reference value :  1.40052e-05
 Reference value :  1.40061e-05
 Reference value :  1.40071e-05
 Reference value :  1.40084e-05
 Reference value :  1.40098e-05
 Reference value :  1.40114e-05
 Reference value :  1.40129e-05
 Reference value :  1.40145e-05
 Reference value :  1.40159e-05
 Reference value :  1.40175e-05
 Reference value :  1.40192e-05
 Reference value :  1.40212e-05
 Reference value :  1.40249e-05
 Reference value :  1.40304e-05
 Reference value :  1.40412e-05
 Reference value :  1.40630e-05
 Reference value :  1.41041e-05
 Reference value :  1.41863e-05
 Reference value :  1.42501e-05
 Reference value :  1.42501e-05
 Reference value :  1.42501e-05
 Reference value :  1.42502e-05
 Reference value :  1.42502e-05
 Reference value :  1.42502e-05
 Reference value :  1.42502e-05
 Reference value :  1.42502e-05
 Reference value :  1.42502e-05
 Reference value :  1.42502e-05
 Reference value :  1.42502e-05
 Reference value :  1.42503e-05
 Reference value :  1.42504e-05
 Reference value :  1.42506e-05
 Reference value :  1.42509e-05
 Reference value :  1.42515e-05
 Reference value :  1.42522e-05
 Reference value :  1.42529e-05
 Reference value :  1.42537e-05
 Reference value :  1.42548e-05
 Reference value :  1.42557e-05
 Reference value :  1.42568e-05
 Reference value :  1.42578e-05
 Reference value :  1.42588e-05
 Reference value :  1.42599e-05
 Reference value :  1.42612e-05
 Reference value :  1.42626e-05
 Reference value :  1.42643e-05
 Reference value :  1.42668e-05
 Reference value :  1.42695e-05
 Reference value :  1.42734e-05
 Reference value :  1.42788e-05
 Reference value :  1.42895e-05
 Reference value :  1.43109e-05
 Reference value :  1.43537e-05
 Reference value :  1.44394e-05
 Reference value :  1.45000e-05
 Reference value :  1.45000e-05
 Reference value :  1.45000e-05
 Reference value :  1.45001e-05
 Reference value :  1.45001e-05
 Reference value :  1.45001e-05
 Reference value :  1.45001e-05
 Reference value :  1.45001e-05
 Reference value :  1.45002e-05
 Reference value :  1.45002e-05
 Reference value :  1.45004e-05
 Reference value :  1.45006e-05
 Reference value :  1.45009e-05
 Reference value :  1.45016e-05
 Reference value :  1.45022e-05
 Reference value :  1.45029e-05
 Reference value :  1.45036e-05
 Reference value :  1.45044e-05
 Reference value :  1.45052e-05
 Reference value :  1.45061e-05
 Reference value :  1.45071e-05
 Reference value :  1.45079e-05
 Reference value :  1.45088e-05
 Reference value :  1.45098e-05
 Reference value :  1.45108e-05
 Reference value :  1.45121e-05
 Reference value :  1.45139e-05
 Reference value :  1.45157e-05
 Reference value :  1.45175e-05
 Reference value :  1.45195e-05
 Reference value :  1.45214e-05
 Reference value :  1.45233e-05
 Reference value :  1.45247e-05
 Reference value :  1.45260e-05
 Reference value :  1.45274e-05
 Reference value :  1.45288e-05
 Reference value :  1.45302e-05
 Reference value :  1.45319e-05
 Reference value :  1.45341e-05
 Reference value :  1.45366e-05
 Reference value :  1.45407e-05
 Reference value :  1.45477e-05
 Reference value :  1.45536e-05
 Reference value :  1.45602e-05
 Reference value :  1.45675e-05
 Reference value :  1.45791e-05
 Reference value :  1.45955e-05
 Reference value :  1.46278e-05
 Reference value :  1.46862e-05
 Reference value :  1.47501e-05
 Reference value :  1.47501e-05
 Reference value :  1.47501e-05
 Reference value :  1.47502e-05
 Reference value :  1.47502e-05
 Reference value :  1.47502e-05
 Reference value :  1.47502e-05
 Reference value :  1.47502e-05
 Reference value :  1.47502e-05
 Reference value :  1.47502e-05
 Reference value :  1.47502e-05
 Reference value :  1.47503e-05
 Reference value :  1.47504e-05
 Reference value :  1.47506e-05
 Reference value :  1.47509e-05
 Reference value :  1.47515e-05
 Reference value :  1.47522e-05
 Reference value :  1.47529e-05
 Reference value :  1.47538e-05
 Reference value :  1.47548e-05
 Reference value :  1.47558e-05
 Reference value :  1.47568e-05
 Reference value :  1.47579e-05
 Reference value :  1.47590e-05
 Reference value :  1.47608e-05
 Reference value :  1.47625e-05
 Reference value :  1.47653e-05
 Reference value :  1.47687e-05
 Reference value :  1.47739e-05
 Reference value :  1.47844e-05
 Reference value :  1.48028e-05
 Reference value :  1.48363e-05
 Reference value :  1.49033e-05
 Reference value :  1.50000e-05
 Reference value :  1.50000e-05
 Reference value :  1.50000e-05
 Reference value :  1.50001e-05
 Reference value :  1.50001e-05
 Reference value :  1.50001e-05
 Reference value :  1.50001e-05
 Reference value :  1.50001e-05
 Reference value :  1.50002e-05
 Reference value :  1.50002e-05
 Reference value :  1.50004e-05
 Reference value :  1.50006e-05
 Reference value :  1.50009e-05
 Reference value :  1.50016e-05
 Reference value :  1.50022e-05
 Reference value :  1.50029e-05
 Reference value :  1.50036e-05
 Reference value :  1.50043e-05
 Reference value :  1.50052e-05
 Reference value :  1.50061e-05
 Reference value :  1.50070e-05
 Reference value :  1.50084e-05
 Reference value :  1.50096e-05
 Reference value :  1.50112e-05
 Reference value :  1.50125e-05
 Reference value :  1.50139e-05
 Reference value :  1.50153e-05
 Reference value :  1.50169e-05
 Reference value :  1.50185e-05
 Reference value :  1.50203e-05
 Reference value :  1.50239e-05
 Reference value :  1.50311e-05
 Reference value :  1.50442e-05
 Reference value :  1.50705e-05
 Reference value :  1.51230e-05
 Reference value :  1.52281e-05
 Reference value :  1.52501e-05
 Reference value :  1.52501e-05
 Reference value :  1.52501e-05
 Reference value :  1.52502e-05
 Reference value :  1.52502e-05
 Reference value :  1.52502e-05
 Reference value :  1.52502e-05
 Reference value :  1.52502e-05
 Reference value :  1.52502e-05
 Reference value :  1.52502e-05
 Reference value :  1.52502e-05
 Reference value :  1.52503e-05
 Reference value :  1.52504e-05
 Reference value :  1.52506e-05
 Reference value :  1.52509e-05
 Reference value :  1.52515e-05
 Reference value :  1.52522e-05
 Reference value :  1.52529e-05
 Reference value :  1.52537e-05
 Reference value :  1.52548e-05
 Reference value :  1.52557e-05
 Reference value :  1.52568e-05
 Reference value :  1.52578e-05
 Reference value :  1.52588e-05
 Reference value :  1.52599e-05
 Reference value :  1.52612e-05
 Reference value :  1.52625e-05
 Reference value :  1.52643e-05
 Reference value :  1.52667e-05
 Reference value :  1.52694e-05
 Reference value :  1.52733e-05
 Reference value :  1.52786e-05
 Reference value :  1.52892e-05
 Reference value :  1.53105e-05
 Reference value :  1.53530e-05
 Reference value :  1.54380e-05
 Reference value :  1.55000e-05
 Reference value :  1.55009e-05
 Reference value :  1.55027e-05
 Reference value :  1.55036e-05
 Reference value :  1.55045e-05
 Reference value :  1.55054e-05
 Reference value :  1.55063e-05
 Reference value :  1.55072e-05
 Reference value :  1.55080e-05
 Reference value :  1.55089e-05
 Reference value :  1.55098e-05
 Reference value :  1.55108e-05
 Reference value :  1.55121e-05
 Reference value :  1.55139e-05
 Reference value :  1.55162e-05
 Reference value :  1.55178e-05
 Reference value :  1.55196e-05
 Reference value :  1.55212e-05
 Reference value :  1.55230e-05
 Reference value :  1.55245e-05
 Reference value :  1.55259e-05
 Reference value :  1.55277e-05
 Reference value :  1.55293e-05
 Reference value :  1.55309e-05
 Reference value :  1.55329e-05
 Reference value :  1.55356e-05
 Reference value :  1.55383e-05
 Reference value :  1.55427e-05
 Reference value :  1.55474e-05
 Reference value :  1.55547e-05
 Reference value :  1.55637e-05
 Reference value :  1.55817e-05
 Reference value :  1.56001e-05
 Reference value :  1.56210e-05
 Reference value :  1.56348e-05
 Reference value :  1.56475e-05
 Reference value :  1.56674e-05
 Reference value :  1.56856e-05
 Reference value :  1.57086e-05
 Reference value :  1.57347e-05
 Reference value :  1.57501e-05
 Reference value :  1.57501e-05
 Reference value :  1.57501e-05
 Reference value :  1.57502e-05
 Reference value :  1.57502e-05
 Reference value :  1.57502e-05
 Reference value :  1.57502e-05
 Reference value :  1.57502e-05
 Reference value :  1.57502e-05
 Reference value :  1.57502e-05
 Reference value :  1.57502e-05
 Reference value :  1.57503e-05
 Reference value :  1.57504e-05
 Reference value :  1.57506e-05
 Reference value :  1.57509e-05
 Reference value :  1.57515e-05
 Reference value :  1.57522e-05
[...]
 Reference value :  2.67765e-04
 Reference value :  2.67769e-04
 Reference value :  2.67774e-04
 Reference value :  2.67785e-04
 Reference value :  2.67803e-04
 Reference value :  2.67837e-04
 Reference value :  2.67903e-04
 Reference value :  2.68000e-04
 Reference value :  2.68000e-04
 Reference value :  2.68000e-04
 Reference value :  2.68000e-04
 Reference value :  2.68000e-04
 Reference value :  2.68000e-04
 Reference value :  2.68000e-04
 Reference value :  2.68000e-04
 Reference value :  2.68000e-04
 Reference value :  2.68000e-04
 Reference value :  2.68000e-04
 Reference value :  2.68001e-04
 Reference value :  2.68001e-04
 Reference value :  2.68002e-04
 Reference value :  2.68002e-04
 Reference value :  2.68003e-04
 Reference value :  2.68004e-04
 Reference value :  2.68004e-04
 Reference value :  2.68005e-04
 Reference value :  2.68006e-04
 Reference value :  2.68007e-04
 Reference value :  2.68008e-04
 Reference value :  2.68010e-04
 Reference value :  2.68011e-04
 Reference value :  2.68013e-04
 Reference value :  2.68015e-04
 Reference value :  2.68016e-04
 Reference value :  2.68018e-04
 Reference value :  2.68019e-04
 Reference value :  2.68021e-04
 Reference value :  2.68025e-04
 Reference value :  2.68030e-04
 Reference value :  2.68041e-04
 Reference value :  2.68063e-04
 Reference value :  2.68107e-04
 Reference value :  2.68193e-04
 Reference value :  2.68250e-04
 Reference value :  2.68250e-04
 Reference value :  2.68250e-04
 Reference value :  2.68250e-04
 Reference value :  2.68250e-04
 Reference value :  2.68250e-04
 Reference value :  2.68250e-04
 Reference value :  2.68250e-04
 Reference value :  2.68250e-04
 Reference value :  2.68250e-04
 Reference value :  2.68250e-04
 Reference value :  2.68250e-04
 Reference value :  2.68250e-04
 Reference value :  2.68251e-04
 Reference value :  2.68251e-04
 Reference value :  2.68252e-04
 Reference value :  2.68252e-04
 Reference value :  2.68253e-04
 Reference value :  2.68254e-04
 Reference value :  2.68255e-04
 Reference value :  2.68256e-04
 Reference value :  2.68257e-04
 Reference value :  2.68258e-04
 Reference value :  2.68259e-04
 Reference value :  2.68260e-04
 Reference value :  2.68261e-04
 Reference value :  2.68264e-04
 Reference value :  2.68267e-04
 Reference value :  2.68271e-04
 Reference value :  2.68277e-04
 Reference value :  2.68289e-04
 Reference value :  2.68314e-04
 Reference value :  2.68363e-04
 Reference value :  2.68461e-04
 Reference value :  2.68500e-04
 Reference value :  2.68500e-04
 Reference value :  2.68500e-04
 Reference value :  2.68500e-04
 Reference value :  2.68500e-04
 Reference value :  2.68500e-04
 Reference value :  2.68500e-04
 Reference value :  2.68500e-04
 Reference value :  2.68500e-04
 Reference value :  2.68500e-04
 Reference value :  2.68500e-04
 Reference value :  2.68501e-04
 Reference value :  2.68501e-04
 Reference value :  2.68502e-04
 Reference value :  2.68502e-04
 Reference value :  2.68503e-04
 Reference value :  2.68504e-04
 Reference value :  2.68504e-04
 Reference value :  2.68505e-04
 Reference value :  2.68506e-04
 Reference value :  2.68507e-04
 Reference value :  2.68508e-04
 Reference value :  2.68509e-04
 Reference value :  2.68510e-04
 Reference value :  2.68511e-04
 Reference value :  2.68512e-04
 Reference value :  2.68514e-04
 Reference value :  2.68517e-04
 Reference value :  2.68520e-04
 Reference value :  2.68523e-04
 Reference value :  2.68525e-04
 Reference value :  2.68526e-04
 Reference value :  2.68528e-04
 Reference value :  2.68530e-04
 Reference value :  2.68533e-04
 Reference value :  2.68535e-04
 Reference value :  2.68538e-04
 Reference value :  2.68543e-04
 Reference value :  2.68550e-04
 Reference value :  2.68563e-04
 Reference value :  2.68575e-04
 Reference value :  2.68584e-04
 Reference value :  2.68595e-04
 Reference value :  2.68603e-04
 Reference value :  2.68612e-04
 Reference value :  2.68620e-04
 Reference value :  2.68626e-04
 Reference value :  2.68635e-04
 Reference value :  2.68653e-04
 Reference value :  2.68676e-04
 Reference value :  2.68717e-04
 Reference value :  2.68750e-04
 Reference value :  2.68750e-04
 Reference value :  2.68750e-04
 Reference value :  2.68750e-04
 Reference value :  2.68750e-04
 Reference value :  2.68750e-04
 Reference value :  2.68750e-04
 Reference value :  2.68750e-04
 Reference value :  2.68750e-04
 Reference value :  2.68750e-04
 Reference value :  2.68750e-04
 Reference value :  2.68750e-04
 Reference value :  2.68750e-04
 Reference value :  2.68751e-04
 Reference value :  2.68751e-04
 Reference value :  2.68752e-04
 Reference value :  2.68752e-04
 Reference value :  2.68753e-04
 Reference value :  2.68754e-04
 Reference value :  2.68755e-04
 Reference value :  2.68756e-04
 Reference value :  2.68757e-04
 Reference value :  2.68758e-04
 Reference value :  2.68759e-04
 Reference value :  2.68760e-04
 Reference value :  2.68762e-04
 Reference value :  2.68765e-04
 Reference value :  2.68768e-04
 Reference value :  2.68773e-04
 Reference value :  2.68782e-04
 Reference value :  2.68801e-04
 Reference value :  2.68838e-04
 Reference value :  2.68911e-04
 Reference value :  2.69000e-04
 Reference value :  2.69000e-04
 Reference value :  2.69000e-04
 Reference value :  2.69000e-04
 Reference value :  2.69000e-04
 Reference value :  2.69000e-04
 Reference value :  2.69000e-04
 Reference value :  2.69000e-04
 Reference value :  2.69000e-04
 Reference value :  2.69000e-04
 Reference value :  2.69000e-04
 Reference value :  2.69001e-04
 Reference value :  2.69001e-04
 Reference value :  2.69002e-04
 Reference value :  2.69002e-04
 Reference value :  2.69003e-04
 Reference value :  2.69004e-04
 Reference value :  2.69004e-04
 Reference value :  2.69005e-04
 Reference value :  2.69006e-04
 Reference value :  2.69007e-04
 Reference value :  2.69008e-04
 Reference value :  2.69010e-04
 Reference value :  2.69011e-04
 Reference value :  2.69013e-04
 Reference value :  2.69014e-04
 Reference value :  2.69016e-04
 Reference value :  2.69018e-04
 Reference value :  2.69019e-04
 Reference value :  2.69021e-04
 Reference value :  2.69025e-04
 Reference value :  2.69030e-04
 Reference value :  2.69041e-04
 Reference value :  2.69063e-04
 Reference value :  2.69105e-04
 Reference value :  2.69189e-04
 Reference value :  2.69250e-04
 Reference value :  2.69250e-04
 Reference value :  2.69250e-04
 Reference value :  2.69250e-04
 Reference value :  2.69250e-04
 Reference value :  2.69250e-04
 Reference value :  2.69250e-04
 Reference value :  2.69250e-04
 Reference value :  2.69250e-04
 Reference value :  2.69250e-04
 Reference value :  2.69250e-04
 Reference value :  2.69250e-04
 Reference value :  2.69250e-04
 Reference value :  2.69251e-04
 Reference value :  2.69251e-04
 Reference value :  2.69252e-04
 Reference value :  2.69252e-04
 Reference value :  2.69253e-04
 Reference value :  2.69254e-04
 Reference value :  2.69255e-04
 Reference value :  2.69256e-04
 Reference value :  2.69257e-04
 Reference value :  2.69258e-04
 Reference value :  2.69259e-04
 Reference value :  2.69260e-04
 Reference value :  2.69261e-04
 Reference value :  2.69262e-04
 Reference value :  2.69264e-04
 Reference value :  2.69267e-04
 Reference value :  2.69269e-04
 Reference value :  2.69273e-04
 Reference value :  2.69278e-04
 Reference value :  2.69289e-04
 Reference value :  2.69308e-04
 Reference value :  2.69346e-04
 Reference value :  2.69422e-04
 Reference value :  2.69500e-04
 Reference value :  2.69500e-04
 Reference value :  2.69500e-04
 Reference value :  2.69500e-04
 Reference value :  2.69500e-04
 Reference value :  2.69500e-04
 Reference value :  2.69500e-04
 Reference value :  2.69500e-04
 Reference value :  2.69500e-04
 Reference value :  2.69500e-04
 Reference value :  2.69500e-04
 Reference value :  2.69501e-04
 Reference value :  2.69501e-04
 Reference value :  2.69502e-04
 Reference value :  2.69502e-04
 Reference value :  2.69503e-04
 Reference value :  2.69504e-04
 Reference value :  2.69504e-04
 Reference value :  2.69505e-04
 Reference value :  2.69506e-04
 Reference value :  2.69507e-04
 Reference value :  2.69508e-04
 Reference value :  2.69509e-04
 Reference value :  2.69510e-04
 Reference value :  2.69511e-04
 Reference value :  2.69512e-04
 Reference value :  2.69514e-04
 Reference value :  2.69516e-04
 Reference value :  2.69518e-04
 Reference value :  2.69520e-04
 Reference value :  2.69521e-04
 Reference value :  2.69523e-04
 Reference value :  2.69525e-04
 Reference value :  2.69526e-04
 Reference value :  2.69528e-04
 Reference value :  2.69529e-04
 Reference value :  2.69531e-04
 Reference value :  2.69533e-04
 Reference value :  2.69535e-04
 Reference value :  2.69538e-04
 Reference value :  2.69542e-04
 Reference value :  2.69548e-04
 Reference value :  2.69552e-04
 Reference value :  2.69558e-04
 Reference value :  2.69562e-04
 Reference value :  2.69566e-04
 Reference value :  2.69571e-04
 Reference value :  2.69576e-04
 Reference value :  2.69582e-04
 Reference value :  2.69591e-04
 Reference value :  2.69600e-04
 Reference value :  2.69618e-04
 Reference value :  2.69651e-04
 Reference value :  2.69717e-04
 Reference value :  2.69750e-04
 Reference value :  2.69750e-04
 Reference value :  2.69750e-04
 Reference value :  2.69750e-04
 Reference value :  2.69750e-04
 Reference value :  2.69750e-04
 Reference value :  2.69750e-04
 Reference value :  2.69750e-04
 Reference value :  2.69750e-04
 Reference value :  2.69750e-04
 Reference value :  2.69750e-04
 Reference value :  2.69750e-04
 Reference value :  2.69750e-04
 Reference value :  2.69751e-04
 Reference value :  2.69751e-04
 Reference value :  2.69752e-04
 Reference value :  2.69752e-04
 Reference value :  2.69753e-04
 Reference value :  2.69754e-04
 Reference value :  2.69755e-04
 Reference value :  2.69756e-04
 Reference value :  2.69757e-04
 Reference value :  2.69758e-04
 Reference value :  2.69759e-04
 Reference value :  2.69761e-04
 Reference value :  2.69763e-04
 Reference value :  2.69765e-04
 Reference value :  2.69769e-04
 Reference value :  2.69774e-04
 Reference value :  2.69785e-04
 Reference value :  2.69803e-04
 Reference value :  2.69836e-04
 Reference value :  2.69903e-04
 Reference value :  2.70000e-04
 Reference value :  2.70000e-04
 Reference value :  2.70000e-04
 Reference value :  2.70000e-04
 Reference value :  2.70000e-04
 Reference value :  2.70000e-04
 Reference value :  2.70000e-04
 Reference value :  2.70000e-04
 Reference value :  2.70000e-04
 Reference value :  2.70000e-04
 Reference value :  2.70000e-04
 Reference value :  2.70001e-04
 Reference value :  2.70001e-04
 Reference value :  2.70002e-04
 Reference value :  2.70002e-04
 Reference value :  2.70003e-04
 Reference value :  2.70004e-04
 Reference value :  2.70004e-04
 Reference value :  2.70005e-04
 Reference value :  2.70006e-04
 Reference value :  2.70007e-04
 Reference value :  2.70008e-04
 Reference value :  2.70010e-04
 Reference value :  2.70011e-04
 Reference value :  2.70013e-04
 Reference value :  2.70014e-04
 Reference value :  2.70016e-04
 Reference value :  2.70017e-04
 Reference value :  2.70019e-04
 Reference value :  2.70021e-04
 Reference value :  2.70025e-04
 Reference value :  2.70030e-04
 Reference value :  2.70042e-04
 Reference value :  2.70064e-04
 Reference value :  2.70110e-04
 Reference value :  2.70201e-04
 Reference value :  2.70250e-04
 Reference value :  2.70250e-04
 Reference value :  2.70250e-04
 Reference value :  2.70250e-04
 Reference value :  2.70250e-04
 Reference value :  2.70250e-04
 Reference value :  2.70250e-04
 Reference value :  2.70250e-04
 Reference value :  2.70250e-04
 Reference value :  2.70250e-04
 Reference value :  2.70250e-04
 Reference value :  2.70250e-04
 Reference value :  2.70250e-04
 Reference value :  2.70251e-04
 Reference value :  2.70251e-04
 Reference value :  2.70252e-04
 Reference value :  2.70252e-04
 Reference value :  2.70253e-04
 Reference value :  2.70254e-04
 Reference value :  2.70255e-04
 Reference value :  2.70256e-04
 Reference value :  2.70257e-04
 Reference value :  2.70258e-04
 Reference value :  2.70259e-04
 Reference value :  2.70260e-04
 Reference value :  2.70261e-04
 Reference value :  2.70264e-04
 Reference value :  2.70267e-04
 Reference value :  2.70271e-04
 Reference value :  2.70277e-04
 Reference value :  2.70289e-04
 Reference value :  2.70314e-04
 Reference value :  2.70362e-04
 Reference value :  2.70460e-04
 Reference value :  2.70500e-04
 Reference value :  2.70500e-04
 Reference value :  2.70500e-04
 Reference value :  2.70500e-04
 Reference value :  2.70500e-04
 Reference value :  2.70500e-04
 Reference value :  2.70500e-04
 Reference value :  2.70500e-04
 Reference value :  2.70500e-04
 Reference value :  2.70500e-04
 Reference value :  2.70500e-04
 Reference value :  2.70501e-04
 Reference value :  2.70501e-04
 Reference value :  2.70502e-04
 Reference value :  2.70502e-04
 Reference value :  2.70503e-04
 Reference value :  2.70504e-04
 Reference value :  2.70504e-04
 Reference value :  2.70505e-04
 Reference value :  2.70506e-04
 Reference value :  2.70507e-04
 Reference value :  2.70508e-04
 Reference value :  2.70509e-04
 Reference value :  2.70510e-04
 Reference value :  2.70511e-04
 Reference value :  2.70512e-04
 Reference value :  2.70514e-04
 Reference value :  2.70517e-04
 Reference value :  2.70520e-04
 Reference value :  2.70523e-04
 Reference value :  2.70525e-04
 Reference value :  2.70527e-04
 Reference value :  2.70529e-04
 Reference value :  2.70532e-04
 Reference value :  2.70534e-04
 Reference value :  2.70536e-04
 Reference value :  2.70539e-04
 Reference value :  2.70544e-04
 Reference value :  2.70550e-04
 Reference value :  2.70559e-04
 Reference value :  2.70573e-04
 Reference value :  2.70591e-04
 Reference value :  2.70622e-04
 Reference value :  2.70657e-04
 Reference value :  2.70704e-04
 Reference value :  2.70750e-04
 Reference value :  2.70750e-04
 Reference value :  2.70750e-04
 Reference value :  2.70750e-04
 Reference value :  2.70750e-04
 Reference value :  2.70750e-04
 Reference value :  2.70750e-04
 Reference value :  2.70750e-04
 Reference value :  2.70750e-04
 Reference value :  2.70750e-04
 Reference value :  2.70750e-04
 Reference value :  2.70750e-04
 Reference value :  2.70750e-04
 Reference value :  2.70750e-04
 Reference value :  2.70751e-04
 Reference value :  2.70751e-04
 Reference value :  2.70752e-04
 Reference value :  2.70752e-04
 Reference value :  2.70753e-04
 Reference value :  2.70754e-04
 Reference value :  2.70755e-04
 Reference value :  2.70756e-04
 Reference value :  2.70757e-04
 Reference value :  2.70758e-04
 Reference value :  2.70759e-04
 Reference value :  2.70760e-04
 Reference value :  2.70762e-04
 Reference value :  2.70765e-04
 Reference value :  2.70768e-04
 Reference value :  2.70773e-04
 Reference value :  2.70781e-04
 Reference value :  2.70798e-04
 Reference value :  2.70831e-04
 Reference value :  2.70897e-04
 Reference value :  2.70988e-04
 Reference value :  2.71000e-04
 Reference value :  2.71000e-04
 Reference value :  2.71000e-04
 Reference value :  2.71000e-04
 Reference value :  2.71000e-04
 Reference value :  2.71000e-04
 Reference value :  2.71000e-04
 Reference value :  2.71000e-04
 Reference value :  2.71000e-04
 Reference value :  2.71000e-04
 Reference value :  2.71000e-04
 Reference value :  2.71001e-04
 Reference value :  2.71001e-04
 Reference value :  2.71002e-04
 Reference value :  2.71002e-04
 Reference value :  2.71003e-04
 Reference value :  2.71004e-04
 Reference value :  2.71004e-04
 Reference value :  2.71005e-04
 Reference value :  2.71006e-04
 Reference value :  2.71007e-04
 Reference value :  2.71008e-04
 Reference value :  2.71010e-04
 Reference value :  2.71011e-04
 Reference value :  2.71013e-04
 Reference value :  2.71014e-04
 Reference value :  2.71016e-04
 Reference value :  2.71017e-04
 Reference value :  2.71019e-04
 Reference value :  2.71021e-04
 Reference value :  2.71025e-04
 Reference value :  2.71032e-04
 Reference value :  2.71045e-04
 Reference value :  2.71071e-04
 Reference value :  2.71123e-04
 Reference value :  2.71226e-04
 Reference value :  2.71250e-04
 Reference value :  2.71250e-04
 Reference value :  2.71250e-04
 Reference value :  2.71250e-04
 Reference value :  2.71250e-04
 Reference value :  2.71250e-04
 Reference value :  2.71250e-04
 Reference value :  2.71250e-04
 Reference value :  2.71250e-04
 Reference value :  2.71250e-04
 Reference value :  2.71250e-04
 Reference value :  2.71250e-04
 Reference value :  2.71250e-04
 Reference value :  2.71251e-04
 Reference value :  2.71251e-04
 Reference value :  2.71252e-04
 Reference value :  2.71252e-04
 Reference value :  2.71253e-04
 Reference value :  2.71254e-04
 Reference value :  2.71255e-04
 Reference value :  2.71256e-04
 Reference value :  2.71257e-04
 Reference value :  2.71258e-04
 Reference value :  2.71259e-04
 Reference value :  2.71260e-04
 Reference value :  2.71261e-04
 Reference value :  2.71262e-04
 Reference value :  2.71264e-04
 Reference value :  2.71266e-04
 Reference value :  2.71269e-04
 Reference value :  2.71273e-04
 Reference value :  2.71278e-04
 Reference value :  2.71288e-04
 Reference value :  2.71303e-04
 Reference value :  2.71334e-04
 Reference value :  2.71396e-04
 Reference value :  2.71500e-04
 Reference value :  2.71500e-04
 Reference value :  2.71500e-04
 Reference value :  2.71500e-04
 Reference value :  2.71500e-04
 Reference value :  2.71500e-04
 Reference value :  2.71500e-04
 Reference value :  2.71500e-04
 Reference value :  2.71500e-04
 Reference value :  2.71500e-04
 Reference value :  2.71500e-04
 Reference value :  2.71501e-04
 Reference value :  2.71501e-04
 Reference value :  2.71502e-04
 Reference value :  2.71502e-04
 Reference value :  2.71503e-04
 Reference value :  2.71504e-04
 Reference value :  2.71504e-04
 Reference value :  2.71505e-04
 Reference value :  2.71506e-04
 Reference value :  2.71507e-04
 Reference value :  2.71508e-04
 Reference value :  2.71509e-04
 Reference value :  2.71510e-04
 Reference value :  2.71511e-04
 Reference value :  2.71512e-04
 Reference value :  2.71514e-04
 Reference value :  2.71516e-04
 Reference value :  2.71518e-04
 Reference value :  2.71520e-04
 Reference value :  2.71521e-04
 Reference value :  2.71523e-04
 Reference value :  2.71525e-04
 Reference value :  2.71527e-04
 Reference value :  2.71530e-04
 Reference value :  2.71533e-04
 Reference value :  2.71538e-04
 Reference value :  2.71544e-04
 Reference value :  2.71548e-04
 Reference value :  2.71552e-04
 Reference value :  2.71558e-04
 Reference value :  2.71564e-04
 Reference value :  2.71570e-04
 Reference value :  2.71582e-04
 Reference value :  2.71597e-04
 Reference value :  2.71622e-04
 Reference value :  2.71661e-04
 Reference value :  2.71718e-04
 Reference value :  2.71750e-04
 Reference value :  2.71750e-04
 Reference value :  2.71750e-04
 Reference value :  2.71750e-04
 Reference value :  2.71750e-04
 Reference value :  2.71750e-04
 Reference value :  2.71750e-04
 Reference value :  2.71750e-04
 Reference value :  2.71750e-04
 Reference value :  2.71750e-04
 Reference value :  2.71750e-04
 Reference value :  2.71750e-04
 Reference value :  2.71750e-04
 Reference value :  2.71751e-04
 Reference value :  2.71751e-04
 Reference value :  2.71752e-04
 Reference value :  2.71752e-04
 Reference value :  2.71753e-04
 Reference value :  2.71754e-04
 Reference value :  2.71755e-04
 Reference value :  2.71756e-04
 Reference value :  2.71758e-04
 Reference value :  2.71759e-04
 Reference value :  2.71761e-04
 Reference value :  2.71763e-04
 Reference value :  2.71766e-04
 Reference value :  2.71770e-04
 Reference value :  2.71776e-04
 Reference value :  2.71788e-04
 Reference value :  2.71811e-04
 Reference value :  2.71858e-04
 Reference value :  2.71950e-04
 Reference value :  2.72000e-04
No. of Data Rows : 41922
ngspice-44 done
