
Note: Compatibility modes selected: hs a


Circuit: ** sch_path: /home/audrey/cace/sar-adc-using-sky130-pdk/runs/run_2025-09-01_17-16-19/parameters/power/run_2/power_consumption.sch

option SCALE: Scale is set to 1e-06 for instance and model parameters
option SCALE: Scale is set to 1e-06 for instance and model parameters
option SCALE: Scale is set to 1e-06 for instance and model parameters
option SCALE: Scale is set to 1e-06 for instance and model parameters
Doing analysis at TEMP = 27.000000 and TNOM = 27.000000

Using KLU as Direct Linear Solver
 Reference value :  0.00000e+00
 Reference value :  1.00000e-12
 Reference value :  2.00000e-12
 Reference value :  4.00000e-12
 Reference value :  8.00000e-12
 Reference value :  1.60000e-11
 Reference value :  3.20000e-11
 Reference value :  6.40000e-11
 Reference value :  1.00000e-10
 Reference value :  1.00578e-10
 Reference value :  1.01733e-10
 Reference value :  1.04045e-10
 Reference value :  1.08667e-10
 Reference value :  1.17912e-10
 Reference value :  1.36402e-10
 Reference value :  1.73381e-10
 Reference value :  2.31884e-10
 Reference value :  3.15534e-10
 Reference value :  4.57610e-10
 Reference value :  7.41762e-10
 Reference value :  1.17201e-09
 Reference value :  1.65069e-09
 Reference value :  2.27517e-09
 Reference value :  3.02087e-09
 Reference value :  3.73191e-09
 Reference value :  4.62236e-09
 Reference value :  5.35095e-09
 Reference value :  6.12077e-09
 Reference value :  6.97693e-09
 Reference value :  7.77758e-09
 Reference value :  8.61974e-09
 Reference value :  9.52179e-09
 Reference value :  1.06392e-08
 Reference value :  1.18221e-08
 Reference value :  1.31110e-08
 Reference value :  1.43381e-08
 Reference value :  1.57858e-08
 Reference value :  1.71698e-08
 Reference value :  1.90684e-08
 Reference value :  2.04803e-08
 Reference value :  2.18299e-08
 Reference value :  2.32404e-08
 Reference value :  2.50022e-08
 Reference value :  2.68696e-08
 Reference value :  2.94102e-08
 Reference value :  3.23082e-08
 Reference value :  3.49619e-08
 Reference value :  3.64359e-08
 Reference value :  3.78804e-08
 Reference value :  3.92343e-08
 Reference value :  4.06110e-08
 Reference value :  4.28337e-08
 Reference value :  4.54552e-08
 Reference value :  4.88092e-08
 Reference value :  5.23569e-08
 Reference value :  5.74004e-08
 Reference value :  6.23866e-08
 Reference value :  7.02460e-08
 Reference value :  8.24766e-08
 Reference value :  1.02342e-07
 Reference value :  1.23633e-07
 Reference value :  1.54146e-07
 Reference value :  1.91873e-07
 Reference value :  2.50100e-07
 Reference value :  2.50110e-07
 Reference value :  2.50130e-07
 Reference value :  2.50170e-07
 Reference value :  2.50200e-07
 Reference value :  2.50201e-07
 Reference value :  2.50202e-07
 Reference value :  2.50204e-07
 Reference value :  2.50208e-07
 Reference value :  2.50216e-07
 Reference value :  2.50232e-07
 Reference value :  2.50265e-07
 Reference value :  2.50331e-07
 Reference value :  2.50413e-07
 Reference value :  2.50576e-07
 Reference value :  2.50756e-07
 Reference value :  2.51099e-07
 Reference value :  2.51497e-07
 Reference value :  2.52186e-07
 Reference value :  2.52821e-07
 Reference value :  2.53569e-07
 Reference value :  2.54551e-07
 Reference value :  2.55541e-07
 Reference value :  2.56565e-07
 Reference value :  2.57735e-07
 Reference value :  2.58849e-07
 Reference value :  2.60115e-07
 Reference value :  2.61381e-07
 Reference value :  2.63092e-07
 Reference value :  2.65814e-07
 Reference value :  2.69942e-07
 Reference value :  2.77651e-07
 Reference value :  2.90016e-07
 Reference value :  3.11932e-07
 Reference value :  3.50400e-07
 Reference value :  4.16127e-07
 Reference value :  5.00000e-07
 Reference value :  5.00010e-07
 Reference value :  5.00030e-07
 Reference value :  5.00070e-07
 Reference value :  5.00100e-07
 Reference value :  5.00101e-07
 Reference value :  5.00102e-07
 Reference value :  5.00104e-07
 Reference value :  5.00108e-07
 Reference value :  5.00116e-07
 Reference value :  5.00133e-07
 Reference value :  5.00166e-07
 Reference value :  5.00232e-07
 Reference value :  5.00364e-07
 Reference value :  5.00562e-07
 Reference value :  5.00958e-07
 Reference value :  5.01468e-07
 Reference value :  5.02004e-07
 Reference value :  5.02765e-07
 Reference value :  5.03571e-07
 Reference value :  5.04319e-07
 Reference value :  5.05131e-07
 Reference value :  5.06130e-07
 Reference value :  5.07181e-07
 Reference value :  5.08420e-07
 Reference value :  5.09733e-07
 Reference value :  5.11727e-07
 Reference value :  5.13533e-07
 Reference value :  5.15579e-07
 Reference value :  5.17539e-07
 Reference value :  5.19737e-07
 Reference value :  5.24135e-07
 Reference value :  5.27149e-07
 Reference value :  5.30651e-07
 Reference value :  5.34481e-07
 Reference value :  5.38539e-07
 Reference value :  5.44797e-07
 Reference value :  5.50743e-07
 Reference value :  5.60437e-07
 Reference value :  5.74384e-07
 Reference value :  6.02278e-07
 Reference value :  6.48087e-07
 Reference value :  7.30387e-07
 Reference value :  7.50100e-07
 Reference value :  7.50110e-07
 Reference value :  7.50130e-07
 Reference value :  7.50170e-07
 Reference value :  7.50200e-07
 Reference value :  7.50201e-07
 Reference value :  7.50202e-07
 Reference value :  7.50204e-07
 Reference value :  7.50208e-07
 Reference value :  7.50216e-07
 Reference value :  7.50233e-07
 Reference value :  7.50266e-07
 Reference value :  7.50333e-07
 Reference value :  7.50467e-07
 Reference value :  7.50644e-07
 Reference value :  7.50914e-07
 Reference value :  7.51453e-07
 Reference value :  7.52099e-07
 Reference value :  7.52800e-07
 Reference value :  7.53529e-07
 Reference value :  7.54426e-07
 Reference value :  7.55524e-07
 Reference value :  7.56676e-07
 Reference value :  7.57702e-07
 Reference value :  7.58796e-07
 Reference value :  7.59792e-07
 Reference value :  7.60841e-07
 Reference value :  7.62255e-07
 Reference value :  7.63761e-07
 Reference value :  7.66773e-07
 Reference value :  7.71839e-07
 Reference value :  7.79702e-07
 Reference value :  7.94912e-07
 Reference value :  8.19227e-07
 Reference value :  8.63133e-07
 Reference value :  9.41102e-07
 Reference value :  1.00000e-06
 Reference value :  1.00001e-06
 Reference value :  1.00003e-06
 Reference value :  1.00007e-06
 Reference value :  1.00010e-06
 Reference value :  1.00010e-06
 Reference value :  1.00010e-06
 Reference value :  1.00010e-06
 Reference value :  1.00011e-06
 Reference value :  1.00012e-06
 Reference value :  1.00013e-06
 Reference value :  1.00017e-06
 Reference value :  1.00023e-06
 Reference value :  1.00036e-06
 Reference value :  1.00056e-06
 Reference value :  1.00096e-06
 Reference value :  1.00147e-06
 Reference value :  1.00201e-06
 Reference value :  1.00276e-06
 Reference value :  1.00346e-06
 Reference value :  1.00420e-06
 Reference value :  1.00499e-06
 Reference value :  1.00587e-06
 Reference value :  1.00691e-06
 Reference value :  1.00774e-06
 Reference value :  1.00867e-06
 Reference value :  1.00966e-06
 Reference value :  1.01084e-06
 Reference value :  1.01249e-06
 Reference value :  1.01493e-06
 Reference value :  1.01837e-06
 Reference value :  1.02257e-06
 Reference value :  1.02578e-06
 Reference value :  1.02864e-06
 Reference value :  1.03083e-06
 Reference value :  1.03288e-06
 Reference value :  1.03523e-06
 Reference value :  1.03751e-06
 Reference value :  1.04006e-06
 Reference value :  1.04369e-06
 Reference value :  1.04816e-06
 Reference value :  1.05475e-06
 Reference value :  1.06450e-06
 Reference value :  1.07910e-06
 Reference value :  1.10224e-06
 Reference value :  1.13721e-06
 Reference value :  1.19282e-06
 Reference value :  1.25010e-06
 Reference value :  1.25011e-06
 Reference value :  1.25013e-06
 Reference value :  1.25017e-06
 Reference value :  1.25020e-06
 Reference value :  1.25020e-06
 Reference value :  1.25020e-06
 Reference value :  1.25020e-06
 Reference value :  1.25021e-06
 Reference value :  1.25022e-06
 Reference value :  1.25023e-06
 Reference value :  1.25027e-06
 Reference value :  1.25033e-06
 Reference value :  1.25047e-06
 Reference value :  1.25064e-06
 Reference value :  1.25091e-06
 Reference value :  1.25145e-06
 Reference value :  1.25210e-06
 Reference value :  1.25288e-06
 Reference value :  1.25358e-06
 Reference value :  1.25455e-06
 Reference value :  1.25561e-06
 Reference value :  1.25656e-06
 Reference value :  1.25766e-06
 Reference value :  1.25883e-06
 Reference value :  1.26002e-06
 Reference value :  1.26153e-06
 Reference value :  1.26423e-06
 Reference value :  1.26761e-06
 Reference value :  1.27325e-06
 Reference value :  1.28453e-06
 Reference value :  1.30109e-06
 Reference value :  1.33420e-06
 Reference value :  1.40043e-06
 Reference value :  1.50000e-06
 Reference value :  1.50001e-06
 Reference value :  1.50003e-06
 Reference value :  1.50007e-06
 Reference value :  1.50010e-06
 Reference value :  1.50010e-06
 Reference value :  1.50010e-06
 Reference value :  1.50010e-06
 Reference value :  1.50011e-06
 Reference value :  1.50012e-06
 Reference value :  1.50013e-06
 Reference value :  1.50017e-06
 Reference value :  1.50023e-06
 Reference value :  1.50036e-06
 Reference value :  1.50056e-06
 Reference value :  1.50095e-06
 Reference value :  1.50146e-06
 Reference value :  1.50200e-06
 Reference value :  1.50275e-06
 Reference value :  1.50344e-06
 Reference value :  1.50417e-06
 Reference value :  1.50500e-06
 Reference value :  1.50592e-06
 Reference value :  1.50700e-06
 Reference value :  1.50798e-06
 Reference value :  1.50966e-06
 Reference value :  1.51119e-06
 Reference value :  1.51312e-06
 Reference value :  1.51472e-06
 Reference value :  1.51641e-06
 Reference value :  1.51868e-06
 Reference value :  1.52099e-06
 Reference value :  1.52487e-06
 Reference value :  1.53001e-06
 Reference value :  1.53801e-06
 Reference value :  1.55076e-06
 Reference value :  1.57340e-06
 Reference value :  1.61498e-06
 Reference value :  1.69176e-06
 Reference value :  1.75010e-06
 Reference value :  1.75011e-06
 Reference value :  1.75013e-06
 Reference value :  1.75017e-06
 Reference value :  1.75020e-06
 Reference value :  1.75020e-06
 Reference value :  1.75020e-06
 Reference value :  1.75020e-06
 Reference value :  1.75021e-06
 Reference value :  1.75022e-06
 Reference value :  1.75023e-06
 Reference value :  1.75027e-06
 Reference value :  1.75033e-06
 Reference value :  1.75047e-06
 Reference value :  1.75064e-06
 Reference value :  1.75091e-06
 Reference value :  1.75145e-06
 Reference value :  1.75210e-06
 Reference value :  1.75288e-06
 Reference value :  1.75358e-06
 Reference value :  1.75454e-06
 Reference value :  1.75561e-06
 Reference value :  1.75653e-06
 Reference value :  1.75762e-06
 Reference value :  1.75852e-06
 Reference value :  1.75951e-06
 Reference value :  1.76068e-06
 Reference value :  1.76199e-06
 Reference value :  1.76463e-06
 Reference value :  1.76850e-06
 Reference value :  1.77518e-06
 Reference value :  1.78832e-06
 Reference value :  1.80992e-06
 Reference value :  1.85312e-06
 Reference value :  1.93951e-06
 Reference value :  2.00000e-06
 Reference value :  2.00001e-06
 Reference value :  2.00003e-06
 Reference value :  2.00007e-06
 Reference value :  2.00010e-06
 Reference value :  2.00010e-06
 Reference value :  2.00010e-06
 Reference value :  2.00010e-06
 Reference value :  2.00011e-06
 Reference value :  2.00012e-06
 Reference value :  2.00013e-06
 Reference value :  2.00017e-06
 Reference value :  2.00023e-06
 Reference value :  2.00036e-06
 Reference value :  2.00056e-06
 Reference value :  2.00095e-06
 Reference value :  2.00146e-06
 Reference value :  2.00200e-06
 Reference value :  2.00275e-06
 Reference value :  2.00345e-06
 Reference value :  2.00418e-06
 Reference value :  2.00498e-06
 Reference value :  2.00586e-06
 Reference value :  2.00661e-06
 Reference value :  2.00746e-06
 Reference value :  2.00819e-06
 Reference value :  2.00904e-06
 Reference value :  2.01012e-06
 Reference value :  2.01126e-06
 Reference value :  2.01328e-06
 Reference value :  2.01572e-06
 Reference value :  2.01879e-06
 Reference value :  2.02225e-06
 Reference value :  2.02507e-06
 Reference value :  2.02734e-06
 Reference value :  2.02948e-06
 Reference value :  2.03160e-06
 Reference value :  2.03377e-06
 Reference value :  2.03630e-06
 Reference value :  2.03953e-06
 Reference value :  2.04492e-06
 Reference value :  2.05212e-06
 Reference value :  2.06462e-06
 Reference value :  2.07917e-06
 Reference value :  2.09499e-06
 Reference value :  2.11082e-06
 Reference value :  2.12210e-06
 Reference value :  2.13269e-06
 Reference value :  2.14004e-06
 Reference value :  2.14903e-06
 Reference value :  2.15718e-06
 Reference value :  2.17155e-06
 Reference value :  2.18914e-06
 Reference value :  2.21389e-06
 Reference value :  2.25010e-06
 Reference value :  2.25011e-06
 Reference value :  2.25013e-06
 Reference value :  2.25017e-06
 Reference value :  2.25020e-06
 Reference value :  2.25020e-06
 Reference value :  2.25020e-06
 Reference value :  2.25020e-06
 Reference value :  2.25021e-06
 Reference value :  2.25022e-06
 Reference value :  2.25023e-06
 Reference value :  2.25027e-06
 Reference value :  2.25033e-06
 Reference value :  2.25047e-06
 Reference value :  2.25064e-06
 Reference value :  2.25091e-06
 Reference value :  2.25145e-06
 Reference value :  2.25210e-06
 Reference value :  2.25288e-06
 Reference value :  2.25358e-06
 Reference value :  2.25454e-06
 Reference value :  2.25543e-06
 Reference value :  2.25643e-06
 Reference value :  2.25746e-06
 Reference value :  2.25848e-06
 Reference value :  2.26020e-06
 Reference value :  2.26190e-06
 Reference value :  2.26457e-06
 Reference value :  2.26815e-06
 Reference value :  2.27427e-06
 Reference value :  2.28466e-06
 Reference value :  2.30090e-06
 Reference value :  2.33238e-06
 Reference value :  2.39223e-06
 Reference value :  2.50000e-06
 Reference value :  2.50001e-06
 Reference value :  2.50003e-06
 Reference value :  2.50007e-06
 Reference value :  2.50010e-06
 Reference value :  2.50010e-06
 Reference value :  2.50010e-06
 Reference value :  2.50010e-06
 Reference value :  2.50011e-06
 Reference value :  2.50012e-06
 Reference value :  2.50013e-06
 Reference value :  2.50017e-06
 Reference value :  2.50023e-06
 Reference value :  2.50036e-06
 Reference value :  2.50055e-06
 Reference value :  2.50091e-06
 Reference value :  2.50141e-06
 Reference value :  2.50194e-06
 Reference value :  2.50259e-06
 Reference value :  2.50328e-06
 Reference value :  2.50395e-06
 Reference value :  2.50471e-06
 Reference value :  2.50557e-06
 Reference value :  2.50642e-06
 Reference value :  2.50764e-06
 Reference value :  2.50888e-06
 Reference value :  2.51090e-06
 Reference value :  2.51240e-06
 Reference value :  2.51392e-06
 Reference value :  2.51551e-06
 Reference value :  2.51725e-06
 Reference value :  2.51903e-06
 Reference value :  2.52261e-06
 Reference value :  2.52729e-06
 Reference value :  2.53613e-06
 Reference value :  2.55164e-06
 Reference value :  2.57997e-06
 Reference value :  2.63665e-06
 Reference value :  2.75001e-06
 Reference value :  2.75010e-06
 Reference value :  2.75010e-06
 Reference value :  2.75010e-06
 Reference value :  2.75011e-06
 Reference value :  2.75012e-06
 Reference value :  2.75014e-06
 Reference value :  2.75019e-06
 Reference value :  2.75020e-06
 Reference value :  2.75020e-06
 Reference value :  2.75020e-06
 Reference value :  2.75020e-06
 Reference value :  2.75020e-06
 Reference value :  2.75021e-06
 Reference value :  2.75022e-06
 Reference value :  2.75023e-06
 Reference value :  2.75026e-06
 Reference value :  2.75033e-06
 Reference value :  2.75045e-06
 Reference value :  2.75063e-06
 Reference value :  2.75088e-06
 Reference value :  2.75139e-06
 Reference value :  2.75202e-06
 Reference value :  2.75272e-06
 Reference value :  2.75346e-06
 Reference value :  2.75433e-06
 Reference value :  2.75549e-06
 Reference value :  2.75644e-06
 Reference value :  2.75744e-06
 Reference value :  2.75841e-06
 Reference value :  2.75951e-06
 Reference value :  2.76071e-06
 Reference value :  2.76208e-06
 Reference value :  2.76358e-06
 Reference value :  2.76601e-06
 Reference value :  2.76865e-06
 Reference value :  2.77279e-06
 Reference value :  2.77922e-06
 Reference value :  2.79209e-06
 Reference value :  2.81251e-06
 Reference value :  2.85029e-06
 Reference value :  2.91645e-06
 Reference value :  3.00000e-06
 Reference value :  3.00001e-06
 Reference value :  3.00003e-06
 Reference value :  3.00007e-06
 Reference value :  3.00010e-06
 Reference value :  3.00010e-06
 Reference value :  3.00010e-06
 Reference value :  3.00010e-06
 Reference value :  3.00011e-06
 Reference value :  3.00012e-06
 Reference value :  3.00013e-06
 Reference value :  3.00017e-06
 Reference value :  3.00023e-06
 Reference value :  3.00036e-06
 Reference value :  3.00055e-06
 Reference value :  3.00091e-06
 Reference value :  3.00141e-06
 Reference value :  3.00194e-06
 Reference value :  3.00268e-06
 Reference value :  3.00338e-06
 Reference value :  3.00409e-06
 Reference value :  3.00485e-06
 Reference value :  3.00571e-06
 Reference value :  3.00652e-06
 Reference value :  3.00734e-06
 Reference value :  3.00810e-06
 Reference value :  3.00894e-06
 Reference value :  3.01007e-06
 Reference value :  3.01114e-06
 Reference value :  3.01300e-06
 Reference value :  3.01513e-06
 Reference value :  3.01679e-06
 Reference value :  3.01862e-06
 Reference value :  3.02046e-06
 Reference value :  3.02247e-06
 Reference value :  3.02395e-06
 Reference value :  3.02537e-06
 Reference value :  3.02670e-06
 Reference value :  3.02816e-06
 Reference value :  3.02985e-06
 Reference value :  3.03169e-06
 Reference value :  3.03445e-06
 Reference value :  3.03787e-06
 Reference value :  3.04472e-06
 Reference value :  3.05276e-06
 Reference value :  3.06162e-06
 Reference value :  3.06943e-06
 Reference value :  3.07312e-06
 Reference value :  3.07694e-06
 Reference value :  3.08065e-06
 Reference value :  3.08669e-06
 Reference value :  3.09364e-06
 Reference value :  3.10348e-06
 Reference value :  3.11751e-06
 Reference value :  3.13902e-06
 Reference value :  3.17043e-06
 Reference value :  3.20638e-06
 Reference value :  3.24839e-06
 Reference value :  3.25010e-06
 Reference value :  3.25011e-06
 Reference value :  3.25013e-06
 Reference value :  3.25017e-06
 Reference value :  3.25020e-06
 Reference value :  3.25020e-06
 Reference value :  3.25020e-06
 Reference value :  3.25020e-06
 Reference value :  3.25021e-06
 Reference value :  3.25022e-06
 Reference value :  3.25023e-06
 Reference value :  3.25027e-06
 Reference value :  3.25033e-06
 Reference value :  3.25047e-06
 Reference value :  3.25064e-06
 Reference value :  3.25091e-06
 Reference value :  3.25145e-06
 Reference value :  3.25210e-06
 Reference value :  3.25287e-06
 Reference value :  3.25358e-06
 Reference value :  3.25455e-06
 Reference value :  3.25561e-06
 Reference value :  3.25649e-06
 Reference value :  3.25746e-06
 Reference value :  3.25844e-06
 Reference value :  3.25979e-06
 Reference value :  3.26120e-06
 Reference value :  3.26384e-06
 Reference value :  3.26709e-06
 Reference value :  3.27223e-06
 Reference value :  3.28252e-06
 Reference value :  3.29847e-06
 Reference value :  3.33001e-06
 Reference value :  3.39310e-06
 Reference value :  3.50000e-06
 Reference value :  3.50001e-06
 Reference value :  3.50003e-06
 Reference value :  3.50007e-06
 Reference value :  3.50010e-06
 Reference value :  3.50010e-06
 Reference value :  3.50010e-06
 Reference value :  3.50010e-06
 Reference value :  3.50011e-06
 Reference value :  3.50012e-06
 Reference value :  3.50013e-06
 Reference value :  3.50017e-06
 Reference value :  3.50023e-06
 Reference value :  3.50036e-06
 Reference value :  3.50055e-06
 Reference value :  3.50091e-06
 Reference value :  3.50141e-06
 Reference value :  3.50194e-06
 Reference value :  3.50269e-06
 Reference value :  3.50337e-06
 Reference value :  3.50409e-06
 Reference value :  3.50490e-06
 Reference value :  3.50579e-06
 Reference value :  3.50679e-06
 Reference value :  3.50795e-06
 Reference value :  3.50966e-06
 Reference value :  3.51110e-06
 Reference value :  3.51275e-06
 Reference value :  3.51448e-06
 Reference value :  3.51625e-06
 Reference value :  3.51804e-06
 Reference value :  3.52066e-06
 Reference value :  3.52342e-06
 Reference value :  3.52838e-06
 Reference value :  3.53564e-06
 Reference value :  3.54785e-06
 Reference value :  3.56965e-06
 Reference value :  3.60620e-06
 Reference value :  3.67294e-06
 Reference value :  3.75010e-06
 Reference value :  3.75011e-06
 Reference value :  3.75013e-06
 Reference value :  3.75017e-06
 Reference value :  3.75020e-06
 Reference value :  3.75020e-06
 Reference value :  3.75020e-06
 Reference value :  3.75020e-06
 Reference value :  3.75021e-06
 Reference value :  3.75022e-06
 Reference value :  3.75023e-06
 Reference value :  3.75027e-06
 Reference value :  3.75033e-06
 Reference value :  3.75047e-06
 Reference value :  3.75064e-06
 Reference value :  3.75091e-06
 Reference value :  3.75145e-06
 Reference value :  3.75210e-06
 Reference value :  3.75288e-06
 Reference value :  3.75358e-06
 Reference value :  3.75454e-06
 Reference value :  3.75561e-06
 Reference value :  3.75651e-06
 Reference value :  3.75748e-06
 Reference value :  3.75842e-06
 Reference value :  3.75942e-06
 Reference value :  3.76059e-06
 Reference value :  3.76294e-06
 Reference value :  3.76605e-06
 Reference value :  3.77052e-06
 Reference value :  3.77831e-06
 Reference value :  3.79389e-06
 Reference value :  3.82369e-06
 Reference value :  3.88330e-06
 Reference value :  4.00000e-06
 Reference value :  4.00001e-06
 Reference value :  4.00003e-06
 Reference value :  4.00007e-06
 Reference value :  4.00010e-06
 Reference value :  4.00010e-06
 Reference value :  4.00010e-06
 Reference value :  4.00010e-06
 Reference value :  4.00011e-06
 Reference value :  4.00012e-06
 Reference value :  4.00013e-06
 Reference value :  4.00017e-06
 Reference value :  4.00023e-06
 Reference value :  4.00036e-06
 Reference value :  4.00055e-06
 Reference value :  4.00091e-06
 Reference value :  4.00141e-06
 Reference value :  4.00194e-06
 Reference value :  4.00269e-06
 Reference value :  4.00337e-06
 Reference value :  4.00409e-06
 Reference value :  4.00488e-06
 Reference value :  4.00575e-06
 Reference value :  4.00657e-06
 Reference value :  4.00743e-06
 Reference value :  4.00840e-06
 Reference value :  4.00934e-06
 Reference value :  4.01035e-06
 Reference value :  4.01179e-06
 Reference value :  4.01328e-06
 Reference value :  4.01575e-06
 Reference value :  4.01843e-06
 Reference value :  4.02085e-06
 Reference value :  4.02344e-06
 Reference value :  4.02537e-06
 Reference value :  4.02720e-06
 Reference value :  4.02884e-06
 Reference value :  4.03061e-06
 Reference value :  4.03267e-06
 Reference value :  4.03529e-06
 Reference value :  4.03841e-06
 Reference value :  4.04345e-06
 Reference value :  4.05049e-06
 Reference value :  4.05703e-06
 Reference value :  4.06465e-06
 Reference value :  4.07364e-06
 Reference value :  4.07969e-06
 Reference value :  4.08648e-06
 Reference value :  4.09380e-06
 Reference value :  4.10072e-06
 Reference value :  4.10757e-06
 Reference value :  4.11538e-06
 Reference value :  4.13099e-06
 Reference value :  4.14948e-06
 Reference value :  4.18122e-06
 Reference value :  4.23529e-06
 Reference value :  4.25010e-06
 Reference value :  4.25011e-06
 Reference value :  4.25013e-06
 Reference value :  4.25017e-06
 Reference value :  4.25020e-06
 Reference value :  4.25020e-06
 Reference value :  4.25020e-06
 Reference value :  4.25020e-06
 Reference value :  4.25021e-06
 Reference value :  4.25022e-06
 Reference value :  4.25023e-06
 Reference value :  4.25027e-06
 Reference value :  4.25033e-06
 Reference value :  4.25042e-06
 Reference value :  4.25058e-06
 Reference value :  4.25077e-06
 Reference value :  4.25109e-06
 Reference value :  4.25172e-06
 Reference value :  4.25234e-06
 Reference value :  4.25304e-06
 Reference value :  4.25378e-06
 Reference value :  4.25472e-06
 Reference value :  4.25551e-06
 Reference value :  4.25641e-06
 Reference value :  4.25730e-06
 Reference value :  4.25824e-06
 Reference value :  4.25980e-06
 Reference value :  4.26135e-06
 Reference value :  4.26398e-06
 Reference value :  4.26727e-06
 Reference value :  4.27243e-06
 Reference value :  4.28275e-06
 Reference value :  4.30338e-06
 Reference value :  4.34465e-06
 Reference value :  4.39371e-06
 Reference value :  4.44802e-06
 Reference value :  4.50000e-06
 Reference value :  4.50001e-06
 Reference value :  4.50003e-06
 Reference value :  4.50007e-06
 Reference value :  4.50010e-06
 Reference value :  4.50010e-06
 Reference value :  4.50010e-06
 Reference value :  4.50010e-06
 Reference value :  4.50011e-06
 Reference value :  4.50012e-06
 Reference value :  4.50013e-06
 Reference value :  4.50017e-06
 Reference value :  4.50023e-06
 Reference value :  4.50036e-06
 Reference value :  4.50063e-06
 Reference value :  4.50109e-06
 Reference value :  4.50176e-06
 Reference value :  4.50247e-06
 Reference value :  4.50308e-06
 Reference value :  4.50385e-06
 Reference value :  4.50481e-06
 Reference value :  4.50576e-06
 Reference value :  4.50671e-06
 Reference value :  4.50793e-06
 Reference value :  4.50935e-06
 Reference value :  4.51106e-06
 Reference value :  4.51241e-06
 Reference value :  4.51386e-06
 Reference value :  4.51530e-06
 Reference value :  4.51703e-06
 Reference value :  4.51886e-06
 Reference value :  4.52218e-06
 Reference value :  4.52694e-06
 Reference value :  4.53126e-06
 Reference value :  4.53799e-06
 Reference value :  4.54513e-06
 Reference value :  4.55942e-06
 Reference value :  4.57788e-06
 Reference value :  4.59751e-06
 Reference value :  4.61929e-06
 Reference value :  4.64467e-06
 Reference value :  4.69543e-06
 Reference value :  4.75010e-06
 Reference value :  4.75011e-06
 Reference value :  4.75013e-06
 Reference value :  4.75017e-06
 Reference value :  4.75020e-06
 Reference value :  4.75020e-06
 Reference value :  4.75020e-06
 Reference value :  4.75020e-06
 Reference value :  4.75021e-06
 Reference value :  4.75022e-06
 Reference value :  4.75023e-06
 Reference value :  4.75027e-06
 Reference value :  4.75033e-06
 Reference value :  4.75042e-06
 Reference value :  4.75058e-06
 Reference value :  4.75077e-06
 Reference value :  4.75108e-06
 Reference value :  4.75171e-06
 Reference value :  4.75233e-06
 Reference value :  4.75303e-06
 Reference value :  4.75377e-06
 Reference value :  4.75471e-06
 Reference value :  4.75556e-06
 Reference value :  4.75651e-06
 Reference value :  4.75734e-06
 Reference value :  4.75825e-06
 Reference value :  4.75926e-06
 Reference value :  4.76041e-06
 Reference value :  4.76272e-06
 Reference value :  4.76572e-06
 Reference value :  4.76998e-06
 Reference value :  4.77737e-06
 Reference value :  4.79216e-06
 Reference value :  4.82173e-06
 Reference value :  4.88088e-06
 Reference value :  4.99917e-06
 Reference value :  5.00000e-06
 Reference value :  5.00001e-06
 Reference value :  5.00003e-06
 Reference value :  5.00007e-06
 Reference value :  5.00010e-06
 Reference value :  5.00010e-06
 Reference value :  5.00010e-06
 Reference value :  5.00010e-06
 Reference value :  5.00011e-06
 Reference value :  5.00012e-06
 Reference value :  5.00013e-06
 Reference value :  5.00017e-06
 Reference value :  5.00023e-06
 Reference value :  5.00036e-06
 Reference value :  5.00063e-06
 Reference value :  5.00109e-06
 Reference value :  5.00175e-06
 Reference value :  5.00247e-06
 Reference value :  5.00309e-06
 Reference value :  5.00385e-06
 Reference value :  5.00472e-06
 Reference value :  5.00561e-06
 Reference value :  5.00649e-06
 Reference value :  5.00729e-06
 Reference value :  5.00805e-06
 Reference value :  5.00889e-06
 Reference value :  5.01000e-06
 Reference value :  5.01117e-06
 Reference value :  5.01352e-06
 Reference value :  5.01591e-06
 Reference value :  5.01931e-06
 Reference value :  5.02283e-06
 Reference value :  5.02596e-06
 Reference value :  5.02838e-06
 Reference value :  5.03065e-06
 Reference value :  5.03316e-06
 Reference value :  5.03560e-06
 Reference value :  5.03849e-06
 Reference value :  5.04179e-06
 Reference value :  5.04715e-06
 Reference value :  5.05424e-06
 Reference value :  5.06070e-06
 Reference value :  5.06533e-06
 Reference value :  5.07102e-06
 Reference value :  5.07755e-06
 Reference value :  5.08574e-06
 Reference value :  5.09270e-06
 Reference value :  5.10105e-06
 Reference value :  5.11003e-06
 Reference value :  5.12507e-06
 Reference value :  5.14799e-06
 Reference value :  5.18256e-06
 Reference value :  5.24665e-06
 Reference value :  5.25010e-06
 Reference value :  5.25011e-06
 Reference value :  5.25013e-06
 Reference value :  5.25017e-06
 Reference value :  5.25020e-06
 Reference value :  5.25020e-06
 Reference value :  5.25020e-06
 Reference value :  5.25020e-06
 Reference value :  5.25021e-06
 Reference value :  5.25022e-06
 Reference value :  5.25023e-06
 Reference value :  5.25027e-06
 Reference value :  5.25033e-06
 Reference value :  5.25042e-06
 Reference value :  5.25058e-06
 Reference value :  5.25076e-06
 Reference value :  5.25108e-06
 Reference value :  5.25172e-06
 Reference value :  5.25234e-06
 Reference value :  5.25305e-06
 Reference value :  5.25378e-06
 Reference value :  5.25473e-06
 Reference value :  5.25576e-06
 Reference value :  5.25652e-06
 Reference value :  5.25741e-06
 Reference value :  5.25837e-06
 Reference value :  5.25950e-06
 Reference value :  5.26070e-06
 Reference value :  5.26311e-06
 Reference value :  5.26622e-06
 Reference value :  5.27074e-06
 Reference value :  5.27935e-06
 Reference value :  5.29657e-06
 Reference value :  5.33103e-06
 Reference value :  5.39993e-06
 Reference value :  5.50000e-06
 Reference value :  5.50001e-06
 Reference value :  5.50003e-06
 Reference value :  5.50007e-06
 Reference value :  5.50010e-06
 Reference value :  5.50010e-06
 Reference value :  5.50010e-06
 Reference value :  5.50010e-06
 Reference value :  5.50011e-06
 Reference value :  5.50012e-06
 Reference value :  5.50013e-06
 Reference value :  5.50017e-06
 Reference value :  5.50023e-06
 Reference value :  5.50036e-06
 Reference value :  5.50063e-06
 Reference value :  5.50110e-06
 Reference value :  5.50176e-06
 Reference value :  5.50247e-06
 Reference value :  5.50308e-06
 Reference value :  5.50385e-06
 Reference value :  5.50481e-06
 Reference value :  5.50576e-06
 Reference value :  5.50670e-06
 Reference value :  5.50782e-06
 Reference value :  5.50925e-06
 Reference value :  5.51083e-06
 Reference value :  5.51232e-06
 Reference value :  5.51368e-06
 Reference value :  5.51517e-06
 Reference value :  5.51688e-06
 Reference value :  5.51863e-06
 Reference value :  5.52214e-06
 Reference value :  5.52702e-06
 Reference value :  5.53666e-06
 Reference value :  5.55445e-06
 Reference value :  5.58612e-06
 Reference value :  5.64883e-06
 Reference value :  5.75010e-06
 Reference value :  5.75011e-06
 Reference value :  5.75013e-06
 Reference value :  5.75017e-06
 Reference value :  5.75020e-06
 Reference value :  5.75020e-06
 Reference value :  5.75020e-06
 Reference value :  5.75020e-06
 Reference value :  5.75021e-06
 Reference value :  5.75022e-06
 Reference value :  5.75023e-06
 Reference value :  5.75027e-06
 Reference value :  5.75033e-06
 Reference value :  5.75041e-06
 Reference value :  5.75058e-06
 Reference value :  5.75077e-06
 Reference value :  5.75108e-06
 Reference value :  5.75170e-06
 Reference value :  5.75233e-06
 Reference value :  5.75303e-06
 Reference value :  5.75376e-06
 Reference value :  5.75470e-06
 Reference value :  5.75573e-06
 Reference value :  5.75648e-06
 Reference value :  5.75736e-06
 Reference value :  5.75836e-06
 Reference value :  5.75929e-06
 Reference value :  5.76039e-06
 Reference value :  5.76161e-06
 Reference value :  5.76304e-06
 Reference value :  5.76455e-06
 Reference value :  5.76670e-06
 Reference value :  5.76913e-06
 Reference value :  5.77325e-06
 Reference value :  5.77991e-06
 Reference value :  5.79019e-06
 Reference value :  5.80780e-06
 Reference value :  5.83573e-06
 Reference value :  5.89101e-06
 Reference value :  6.00000e-06
 Reference value :  6.00001e-06
 Reference value :  6.00003e-06
 Reference value :  6.00007e-06
 Reference value :  6.00010e-06
 Reference value :  6.00010e-06
 Reference value :  6.00010e-06
 Reference value :  6.00010e-06
 Reference value :  6.00011e-06
 Reference value :  6.00012e-06
 Reference value :  6.00013e-06
 Reference value :  6.00017e-06
 Reference value :  6.00023e-06
 Reference value :  6.00036e-06
 Reference value :  6.00063e-06
 Reference value :  6.00109e-06
 Reference value :  6.00175e-06
 Reference value :  6.00247e-06
 Reference value :  6.00309e-06
 Reference value :  6.00385e-06
 Reference value :  6.00482e-06
 Reference value :  6.00571e-06
 Reference value :  6.00666e-06
 Reference value :  6.00762e-06
 Reference value :  6.00855e-06
 Reference value :  6.00956e-06
 Reference value :  6.01079e-06
 Reference value :  6.01201e-06
 Reference value :  6.01443e-06
 Reference value :  6.01700e-06
 Reference value :  6.01898e-06
 Reference value :  6.02109e-06
 Reference value :  6.02359e-06
 Reference value :  6.02598e-06
 Reference value :  6.02798e-06
 Reference value :  6.02946e-06
 Reference value :  6.03108e-06
 Reference value :  6.03290e-06
 Reference value :  6.03499e-06
 Reference value :  6.03707e-06
 Reference value :  6.04017e-06
 Reference value :  6.04442e-06
 Reference value :  6.04925e-06
 Reference value :  6.05509e-06
 Reference value :  6.06110e-06
 Reference value :  6.06982e-06
 Reference value :  6.08515e-06
 Reference value :  6.11372e-06
 Reference value :  6.13758e-06
 Reference value :  6.15962e-06
 Reference value :  6.17887e-06
 Reference value :  6.20101e-06
 Reference value :  6.24528e-06
 Reference value :  6.25010e-06
 Reference value :  6.25011e-06
 Reference value :  6.25013e-06
 Reference value :  6.25017e-06
 Reference value :  6.25020e-06
 Reference value :  6.25020e-06
 Reference value :  6.25020e-06
 Reference value :  6.25020e-06
 Reference value :  6.25021e-06
 Reference value :  6.25022e-06
 Reference value :  6.25023e-06
 Reference value :  6.25027e-06
 Reference value :  6.25033e-06
 Reference value :  6.25041e-06
 Reference value :  6.25058e-06
 Reference value :  6.25076e-06
 Reference value :  6.25106e-06
 Reference value :  6.25166e-06
 Reference value :  6.25229e-06
 Reference value :  6.25299e-06
 Reference value :  6.25371e-06
 Reference value :  6.25464e-06
 Reference value :  6.25566e-06
 Reference value :  6.25692e-06
 Reference value :  6.25795e-06
 Reference value :  6.25905e-06
 Reference value :  6.26023e-06
 Reference value :  6.26205e-06
 Reference value :  6.26388e-06
 Reference value :  6.26742e-06
 Reference value :  6.27261e-06
 Reference value :  6.28161e-06
 Reference value :  6.29849e-06
 Reference value :  6.32733e-06
 Reference value :  6.38500e-06
 Reference value :  6.48386e-06
 Reference value :  6.50000e-06
 Reference value :  6.50001e-06
 Reference value :  6.50003e-06
 Reference value :  6.50007e-06
 Reference value :  6.50010e-06
 Reference value :  6.50010e-06
 Reference value :  6.50010e-06
 Reference value :  6.50010e-06
 Reference value :  6.50011e-06
 Reference value :  6.50012e-06
 Reference value :  6.50013e-06
 Reference value :  6.50017e-06
 Reference value :  6.50023e-06
 Reference value :  6.50036e-06
 Reference value :  6.50063e-06
 Reference value :  6.50110e-06
 Reference value :  6.50176e-06
 Reference value :  6.50246e-06
 Reference value :  6.50308e-06
 Reference value :  6.50385e-06
 Reference value :  6.50480e-06
 Reference value :  6.50576e-06
 Reference value :  6.50669e-06
 Reference value :  6.50776e-06
 Reference value :  6.50887e-06
 Reference value :  6.51081e-06
 Reference value :  6.51261e-06
 Reference value :  6.51409e-06
 Reference value :  6.51572e-06
 Reference value :  6.51759e-06
 Reference value :  6.51960e-06
 Reference value :  6.52321e-06
 Reference value :  6.52819e-06
 Reference value :  6.53724e-06
 Reference value :  6.55218e-06
 Reference value :  6.58172e-06
 Reference value :  6.63481e-06
 Reference value :  6.73703e-06
 Reference value :  6.75010e-06
 Reference value :  6.75011e-06
 Reference value :  6.75013e-06
 Reference value :  6.75017e-06
 Reference value :  6.75020e-06
 Reference value :  6.75020e-06
 Reference value :  6.75020e-06
 Reference value :  6.75020e-06
 Reference value :  6.75021e-06
 Reference value :  6.75022e-06
 Reference value :  6.75023e-06
 Reference value :  6.75027e-06
 Reference value :  6.75033e-06
 Reference value :  6.75041e-06
 Reference value :  6.75058e-06
 Reference value :  6.75080e-06
 Reference value :  6.75107e-06
 Reference value :  6.75163e-06
 Reference value :  6.75225e-06
 Reference value :  6.75292e-06
 Reference value :  6.75364e-06
 Reference value :  6.75457e-06
 Reference value :  6.75558e-06
 Reference value :  6.75681e-06
 Reference value :  6.75777e-06
 Reference value :  6.75882e-06
 Reference value :  6.75984e-06
 Reference value :  6.76095e-06
 Reference value :  6.76216e-06
 Reference value :  6.76348e-06
 Reference value :  6.76497e-06
 Reference value :  6.76745e-06
 Reference value :  6.77012e-06
 Reference value :  6.77421e-06
 Reference value :  6.78050e-06
 Reference value :  6.79309e-06
 Reference value :  6.81807e-06
 Reference value :  6.86335e-06
 Reference value :  6.95391e-06
 Reference value :  7.00000e-06
 Reference value :  7.00001e-06
 Reference value :  7.00003e-06
 Reference value :  7.00007e-06
 Reference value :  7.00010e-06
 Reference value :  7.00010e-06
 Reference value :  7.00010e-06
 Reference value :  7.00010e-06
 Reference value :  7.00011e-06
 Reference value :  7.00012e-06
 Reference value :  7.00013e-06
 Reference value :  7.00017e-06
 Reference value :  7.00023e-06
 Reference value :  7.00036e-06
 Reference value :  7.00063e-06
 Reference value :  7.00109e-06
 Reference value :  7.00176e-06
 Reference value :  7.00246e-06
 Reference value :  7.00309e-06
 Reference value :  7.00385e-06
 Reference value :  7.00481e-06
 Reference value :  7.00571e-06
 Reference value :  7.00665e-06
 Reference value :  7.00739e-06
 Reference value :  7.00824e-06
 Reference value :  7.00911e-06
 Reference value :  7.00996e-06
 Reference value :  7.01105e-06
 Reference value :  7.01223e-06
 Reference value :  7.01457e-06
 Reference value :  7.01717e-06
 Reference value :  7.01912e-06
 Reference value :  7.02120e-06
 Reference value :  7.02316e-06
 Reference value :  7.02549e-06
 Reference value :  7.02740e-06
 Reference value :  7.02891e-06
 Reference value :  7.03030e-06
 Reference value :  7.03166e-06
 Reference value :  7.03312e-06
 Reference value :  7.03472e-06
 Reference value :  7.03658e-06
 Reference value :  7.03933e-06
 Reference value :  7.04247e-06
 Reference value :  7.04578e-06
 Reference value :  7.05138e-06
 Reference value :  7.06085e-06
 Reference value :  7.07767e-06
 Reference value :  7.10731e-06
 Reference value :  7.16657e-06
 Reference value :  7.22352e-06
 Reference value :  7.25010e-06
 Reference value :  7.25011e-06
 Reference value :  7.25013e-06
 Reference value :  7.25017e-06
 Reference value :  7.25020e-06
 Reference value :  7.25020e-06
 Reference value :  7.25020e-06
 Reference value :  7.25020e-06
 Reference value :  7.25021e-06
 Reference value :  7.25022e-06
 Reference value :  7.25023e-06
 Reference value :  7.25027e-06
 Reference value :  7.25033e-06
 Reference value :  7.25042e-06
 Reference value :  7.25059e-06
 Reference value :  7.25077e-06
 Reference value :  7.25107e-06
 Reference value :  7.25167e-06
 Reference value :  7.25229e-06
 Reference value :  7.25299e-06
 Reference value :  7.25372e-06
 Reference value :  7.25465e-06
 Reference value :  7.25566e-06
 Reference value :  7.25659e-06
 Reference value :  7.25779e-06
 Reference value :  7.25891e-06
 Reference value :  7.26009e-06
 Reference value :  7.26179e-06
 Reference value :  7.26402e-06
 Reference value :  7.26785e-06
 Reference value :  7.27344e-06
 Reference value :  7.28463e-06
 Reference value :  7.30481e-06
 Reference value :  7.34242e-06
 Reference value :  7.41623e-06
 Reference value :  7.50000e-06
 Reference value :  7.50001e-06
 Reference value :  7.50003e-06
 Reference value :  7.50007e-06
 Reference value :  7.50010e-06
 Reference value :  7.50010e-06
 Reference value :  7.50010e-06
 Reference value :  7.50010e-06
 Reference value :  7.50011e-06
 Reference value :  7.50012e-06
 Reference value :  7.50013e-06
 Reference value :  7.50017e-06
 Reference value :  7.50023e-06
 Reference value :  7.50036e-06
 Reference value :  7.50063e-06
 Reference value :  7.50110e-06
 Reference value :  7.50172e-06
 Reference value :  7.50245e-06
 Reference value :  7.50308e-06
 Reference value :  7.50384e-06
 Reference value :  7.50475e-06
 Reference value :  7.50573e-06
 Reference value :  7.50663e-06
 Reference value :  7.50781e-06
 Reference value :  7.50903e-06
 Reference value :  7.51070e-06
 Reference value :  7.51259e-06
 Reference value :  7.51410e-06
 Reference value :  7.51573e-06
 Reference value :  7.51758e-06
 Reference value :  7.51957e-06
 Reference value :  7.52307e-06
 Reference value :  7.52799e-06
 Reference value :  7.53652e-06
 Reference value :  7.55078e-06
 Reference value :  7.57888e-06
 Reference value :  7.62752e-06
 Reference value :  7.72480e-06
 Reference value :  7.75010e-06
 Reference value :  7.75011e-06
 Reference value :  7.75013e-06
 Reference value :  7.75017e-06
 Reference value :  7.75020e-06
 Reference value :  7.75020e-06
 Reference value :  7.75020e-06
 Reference value :  7.75020e-06
 Reference value :  7.75021e-06
 Reference value :  7.75022e-06
 Reference value :  7.75023e-06
 Reference value :  7.75027e-06
 Reference value :  7.75033e-06
 Reference value :  7.75042e-06
 Reference value :  7.75059e-06
 Reference value :  7.75082e-06
 Reference value :  7.75109e-06
 Reference value :  7.75165e-06
 Reference value :  7.75226e-06
 Reference value :  7.75292e-06
 Reference value :  7.75365e-06
 Reference value :  7.75457e-06
 Reference value :  7.75558e-06
 Reference value :  7.75657e-06
 Reference value :  7.75762e-06
 Reference value :  7.75857e-06
 Reference value :  7.75956e-06
 Reference value :  7.76071e-06
 Reference value :  7.76194e-06
 Reference value :  7.76330e-06
 Reference value :  7.76487e-06
 Reference value :  7.76728e-06
 Reference value :  7.76992e-06
 Reference value :  7.77425e-06
 Reference value :  7.78138e-06
 Reference value :  7.79562e-06
 Reference value :  7.81990e-06
 Reference value :  7.86585e-06
 Reference value :  7.95002e-06
 Reference value :  8.00000e-06
 Reference value :  8.00001e-06
 Reference value :  8.00003e-06
 Reference value :  8.00007e-06
 Reference value :  8.00010e-06
 Reference value :  8.00010e-06
 Reference value :  8.00010e-06
 Reference value :  8.00010e-06
 Reference value :  8.00011e-06
 Reference value :  8.00012e-06
 Reference value :  8.00013e-06
 Reference value :  8.00017e-06
 Reference value :  8.00023e-06
 Reference value :  8.00036e-06
 Reference value :  8.00063e-06
 Reference value :  8.00110e-06
 Reference value :  8.00172e-06
 Reference value :  8.00245e-06
 Reference value :  8.00308e-06
 Reference value :  8.00385e-06
 Reference value :  8.00482e-06
 Reference value :  8.00575e-06
 Reference value :  8.00670e-06
 Reference value :  8.00746e-06
 Reference value :  8.00833e-06
 Reference value :  8.00927e-06
 Reference value :  8.01016e-06
 Reference value :  8.01155e-06
 Reference value :  8.01297e-06
 Reference value :  8.01430e-06
 Reference value :  8.01576e-06
 Reference value :  8.01703e-06
 Reference value :  8.01852e-06
 Reference value :  8.02007e-06
 Reference value :  8.02180e-06
 Reference value :  8.02524e-06
 Reference value :  8.02915e-06
 Reference value :  8.03307e-06
 Reference value :  8.03855e-06
 Reference value :  8.04372e-06
 Reference value :  8.04854e-06
 Reference value :  8.05349e-06
 Reference value :  8.05892e-06
 Reference value :  8.06394e-06
 Reference value :  8.07049e-06
 Reference value :  8.07793e-06
 Reference value :  8.09280e-06
 Reference value :  8.11604e-06
 Reference value :  8.15945e-06
 Reference value :  8.21811e-06
 Reference value :  8.25010e-06
 Reference value :  8.25011e-06
 Reference value :  8.25013e-06
 Reference value :  8.25017e-06
 Reference value :  8.25020e-06
 Reference value :  8.25020e-06
 Reference value :  8.25020e-06
 Reference value :  8.25020e-06
 Reference value :  8.25021e-06
 Reference value :  8.25022e-06
 Reference value :  8.25023e-06
 Reference value :  8.25027e-06
 Reference value :  8.25033e-06
 Reference value :  8.25047e-06
 Reference value :  8.25064e-06
 Reference value :  8.25085e-06
 Reference value :  8.25127e-06
 Reference value :  8.25193e-06
 Reference value :  8.25261e-06
 Reference value :  8.25331e-06
 Reference value :  8.25422e-06
 Reference value :  8.25545e-06
 Reference value :  8.25660e-06
 Reference value :  8.25789e-06
 Reference value :  8.25953e-06
 Reference value :  8.26158e-06
 Reference value :  8.26424e-06
 Reference value :  8.26765e-06
 Reference value :  8.27257e-06
 Reference value :  8.28243e-06
 Reference value :  8.29635e-06
 Reference value :  8.32421e-06
 Reference value :  8.37992e-06
 Reference value :  8.48484e-06
 Reference value :  8.50000e-06
No. of Data Rows : 1414
ngspice-44 done
