
Note: Compatibility modes selected: hs a


Circuit: ** sch_path: /home/audrey/cace/sar-adc-using-sky130-pdk/runs/run_2025-08-29_20-20-00/parameters/power/run_2/power_consumption.sch

option SCALE: Scale is set to 1e-06 for instance and model parameters
option SCALE: Scale is set to 1e-06 for instance and model parameters
option SCALE: Scale is set to 1e-06 for instance and model parameters
option SCALE: Scale is set to 1e-06 for instance and model parameters
Doing analysis at TEMP = 27.000000 and TNOM = 27.000000

Using KLU as Direct Linear Solver
Operating point simulation skipped by 'uic',
  now using transient initial conditions.
 Reference value :  5.00000e-12
 Reference value :  5.13431e-12
 Reference value :  5.40294e-12
 Reference value :  5.94019e-12
 Reference value :  7.01469e-12
 Reference value :  8.86966e-12
 Reference value :  1.19301e-11
 Reference value :  1.74627e-11
 Reference value :  2.83410e-11
 Reference value :  4.18854e-11
 Reference value :  6.69109e-11
 Reference value :  9.69597e-11
 Reference value :  1.49714e-10
 Reference value :  2.12502e-10
 Reference value :  3.32746e-10
 Reference value :  4.71444e-10
 Reference value :  5.00000e-10
 Reference value :  5.03753e-10
 Reference value :  5.11258e-10
 Reference value :  5.26268e-10
 Reference value :  5.56289e-10
 Reference value :  6.16331e-10
 Reference value :  7.36415e-10
 Reference value :  9.76583e-10
 Reference value :  1.45692e-09
 Reference value :  2.41759e-09
 Reference value :  3.90853e-09
 Reference value :  5.60321e-09
 Reference value :  8.99259e-09
 Reference value :  1.41600e-08
 Reference value :  2.19327e-08
 Reference value :  3.34382e-08
 Reference value :  4.80509e-08
 Reference value :  7.12202e-08
 Reference value :  1.13197e-07
 Reference value :  1.97150e-07
 Reference value :  3.65057e-07
 Reference value :  5.00000e-07
 Reference value :  5.33581e-07
 Reference value :  6.00744e-07
 Reference value :  7.35069e-07
 Reference value :  1.00050e-06
 Reference value :  1.00055e-06
 Reference value :  1.00065e-06
 Reference value :  1.00085e-06
 Reference value :  1.00100e-06
 Reference value :  1.00103e-06
 Reference value :  1.00109e-06
 Reference value :  1.00122e-06
 Reference value :  1.00147e-06
 Reference value :  1.00194e-06
 Reference value :  1.00247e-06
 Reference value :  1.00330e-06
 Reference value :  1.00450e-06
 Reference value :  1.00655e-06
 Reference value :  1.01013e-06
 Reference value :  1.01730e-06
 Reference value :  1.02550e-06
 Reference value :  1.03386e-06
 Reference value :  1.04278e-06
 Reference value :  1.05199e-06
 Reference value :  1.06089e-06
 Reference value :  1.06864e-06
 Reference value :  1.07512e-06
 Reference value :  1.08109e-06
 Reference value :  1.08587e-06
 Reference value :  1.09057e-06
 Reference value :  1.09519e-06
 Reference value :  1.09971e-06
 Reference value :  1.10400e-06
 Reference value :  1.10846e-06
 Reference value :  1.11385e-06
 Reference value :  1.11940e-06
 Reference value :  1.12610e-06
 Reference value :  1.13289e-06
 Reference value :  1.13914e-06
 Reference value :  1.14510e-06
 Reference value :  1.15321e-06
 Reference value :  1.16149e-06
 Reference value :  1.17290e-06
 Reference value :  1.18567e-06
 Reference value :  1.20071e-06
 Reference value :  1.21281e-06
 Reference value :  1.22531e-06
 Reference value :  1.24260e-06
 Reference value :  1.25899e-06
 Reference value :  1.27460e-06
 Reference value :  1.28825e-06
 Reference value :  1.30246e-06
 Reference value :  1.31688e-06
 Reference value :  1.33651e-06
 Reference value :  1.35966e-06
 Reference value :  1.38135e-06
 Reference value :  1.40646e-06
 Reference value :  1.42460e-06
 Reference value :  1.44442e-06
 Reference value :  1.46780e-06
 Reference value :  1.48925e-06
 Reference value :  1.52250e-06
 Reference value :  1.55238e-06
 Reference value :  1.57397e-06
 Reference value :  1.59587e-06
 Reference value :  1.62005e-06
 Reference value :  1.64084e-06
 Reference value :  1.65687e-06
 Reference value :  1.67125e-06
 Reference value :  1.68611e-06
 Reference value :  1.69998e-06
 Reference value :  1.71677e-06
 Reference value :  1.73789e-06
 Reference value :  1.76356e-06
 Reference value :  1.79931e-06
 Reference value :  1.84106e-06
 Reference value :  1.87392e-06
 Reference value :  1.89978e-06
 Reference value :  1.92839e-06
 Reference value :  1.95749e-06
 Reference value :  1.98780e-06
 Reference value :  2.00000e-06
 Reference value :  2.00005e-06
 Reference value :  2.00015e-06
 Reference value :  2.00035e-06
 Reference value :  2.00050e-06
 Reference value :  2.00051e-06
 Reference value :  2.00053e-06
 Reference value :  2.00057e-06
 Reference value :  2.00065e-06
 Reference value :  2.00081e-06
 Reference value :  2.00114e-06
 Reference value :  2.00178e-06
 Reference value :  2.00307e-06
 Reference value :  2.00505e-06
 Reference value :  2.00755e-06
 Reference value :  2.01079e-06
 Reference value :  2.01524e-06
 Reference value :  2.01994e-06
 Reference value :  2.02688e-06
 Reference value :  2.03477e-06
 Reference value :  2.04243e-06
 Reference value :  2.05427e-06
 Reference value :  2.07077e-06
 Reference value :  2.08690e-06
 Reference value :  2.11211e-06
 Reference value :  2.14799e-06
 Reference value :  2.20128e-06
 Reference value :  2.26703e-06
 Reference value :  2.28347e-06
 Reference value :  2.31635e-06
 Reference value :  2.36175e-06
 Reference value :  2.39927e-06
 Reference value :  2.42735e-06
 Reference value :  2.45385e-06
 Reference value :  2.47885e-06
 Reference value :  2.50611e-06
 Reference value :  2.53342e-06
 Reference value :  2.57377e-06
 Reference value :  2.61516e-06
 Reference value :  2.68063e-06
 Reference value :  2.76463e-06
 Reference value :  2.85834e-06
 Reference value :  2.95882e-06
 Reference value :  3.00050e-06
 Reference value :  3.00055e-06
 Reference value :  3.00065e-06
 Reference value :  3.00085e-06
 Reference value :  3.00100e-06
 Reference value :  3.00103e-06
 Reference value :  3.00109e-06
 Reference value :  3.00121e-06
 Reference value :  3.00145e-06
 Reference value :  3.00182e-06
 Reference value :  3.00222e-06
 Reference value :  3.00287e-06
 Reference value :  3.00381e-06
 Reference value :  3.00569e-06
 Reference value :  3.00945e-06
 Reference value :  3.01698e-06
 Reference value :  3.03204e-06
 Reference value :  3.06216e-06
 Reference value :  3.12239e-06
 Reference value :  3.24286e-06
 Reference value :  3.43095e-06
 Reference value :  3.72143e-06
 Reference value :  4.00000e-06
 Reference value :  4.00005e-06
 Reference value :  4.00015e-06
 Reference value :  4.00035e-06
 Reference value :  4.00050e-06
 Reference value :  4.00051e-06
 Reference value :  4.00053e-06
 Reference value :  4.00057e-06
 Reference value :  4.00065e-06
 Reference value :  4.00082e-06
 Reference value :  4.00114e-06
 Reference value :  4.00180e-06
 Reference value :  4.00310e-06
 Reference value :  4.00477e-06
 Reference value :  4.00779e-06
 Reference value :  4.01177e-06
 Reference value :  4.01653e-06
 Reference value :  4.02197e-06
 Reference value :  4.03286e-06
 Reference value :  4.05361e-06
 Reference value :  4.09293e-06
 Reference value :  4.17156e-06
 Reference value :  4.28335e-06
 Reference value :  4.46849e-06
 Reference value :  4.78933e-06
 Reference value :  5.00050e-06
 Reference value :  5.00055e-06
 Reference value :  5.00065e-06
 Reference value :  5.00085e-06
 Reference value :  5.00100e-06
 Reference value :  5.00103e-06
 Reference value :  5.00109e-06
 Reference value :  5.00122e-06
 Reference value :  5.00146e-06
 Reference value :  5.00185e-06
 Reference value :  5.00224e-06
 Reference value :  5.00290e-06
 Reference value :  5.00386e-06
 Reference value :  5.00577e-06
 Reference value :  5.00961e-06
 Reference value :  5.01728e-06
 Reference value :  5.03262e-06
 Reference value :  5.06330e-06
 Reference value :  5.12465e-06
 Reference value :  5.24247e-06
 Reference value :  5.40023e-06
 Reference value :  5.65426e-06
 Reference value :  6.00000e-06
 Reference value :  6.00005e-06
 Reference value :  6.00015e-06
 Reference value :  6.00035e-06
 Reference value :  6.00050e-06
 Reference value :  6.00051e-06
 Reference value :  6.00053e-06
 Reference value :  6.00057e-06
 Reference value :  6.00065e-06
 Reference value :  6.00082e-06
 Reference value :  6.00114e-06
 Reference value :  6.00179e-06
 Reference value :  6.00310e-06
 Reference value :  6.00475e-06
 Reference value :  6.00779e-06
 Reference value :  6.01147e-06
 Reference value :  6.01605e-06
 Reference value :  6.02132e-06
 Reference value :  6.03186e-06
 Reference value :  6.05294e-06
 Reference value :  6.09509e-06
 Reference value :  6.17795e-06
 Reference value :  6.28712e-06
 Reference value :  6.48280e-06
 Reference value :  6.83620e-06
 Reference value :  7.00050e-06
 Reference value :  7.00055e-06
 Reference value :  7.00065e-06
 Reference value :  7.00085e-06
 Reference value :  7.00100e-06
 Reference value :  7.00103e-06
 Reference value :  7.00109e-06
 Reference value :  7.00122e-06
 Reference value :  7.00146e-06
 Reference value :  7.00185e-06
 Reference value :  7.00224e-06
 Reference value :  7.00290e-06
 Reference value :  7.00386e-06
 Reference value :  7.00578e-06
 Reference value :  7.00962e-06
 Reference value :  7.01731e-06
 Reference value :  7.03268e-06
 Reference value :  7.06343e-06
 Reference value :  7.12492e-06
 Reference value :  7.23864e-06
 Reference value :  7.39543e-06
 Reference value :  7.64616e-06
 Reference value :  8.00000e-06
 Reference value :  8.00005e-06
 Reference value :  8.00015e-06
 Reference value :  8.00035e-06
 Reference value :  8.00050e-06
 Reference value :  8.00051e-06
 Reference value :  8.00053e-06
 Reference value :  8.00057e-06
 Reference value :  8.00065e-06
 Reference value :  8.00082e-06
 Reference value :  8.00114e-06
 Reference value :  8.00179e-06
 Reference value :  8.00310e-06
 Reference value :  8.00475e-06
 Reference value :  8.00779e-06
 Reference value :  8.01148e-06
 Reference value :  8.01607e-06
 Reference value :  8.02135e-06
 Reference value :  8.03191e-06
 Reference value :  8.05303e-06
 Reference value :  8.09526e-06
 Reference value :  8.17850e-06
 Reference value :  8.28805e-06
 Reference value :  8.48439e-06
 Reference value :  8.83729e-06
 Reference value :  9.00050e-06
 Reference value :  9.00055e-06
 Reference value :  9.00065e-06
 Reference value :  9.00085e-06
 Reference value :  9.00100e-06
 Reference value :  9.00103e-06
 Reference value :  9.00109e-06
 Reference value :  9.00122e-06
 Reference value :  9.00146e-06
 Reference value :  9.00185e-06
 Reference value :  9.00224e-06
 Reference value :  9.00290e-06
 Reference value :  9.00386e-06
 Reference value :  9.00578e-06
 Reference value :  9.00963e-06
 Reference value :  9.01731e-06
 Reference value :  9.03269e-06
 Reference value :  9.06344e-06
 Reference value :  9.12494e-06
 Reference value :  9.23763e-06
 Reference value :  9.39412e-06
 Reference value :  9.64401e-06
 Reference value :  1.00000e-05
 Reference value :  1.00000e-05
 Reference value :  1.00001e-05
 Reference value :  1.00003e-05
 Reference value :  1.00005e-05
 Reference value :  1.00005e-05
 Reference value :  1.00005e-05
 Reference value :  1.00006e-05
 Reference value :  1.00007e-05
 Reference value :  1.00008e-05
 Reference value :  1.00011e-05
 Reference value :  1.00018e-05
 Reference value :  1.00031e-05
 Reference value :  1.00048e-05
 Reference value :  1.00078e-05
 Reference value :  1.00115e-05
 Reference value :  1.00161e-05
 Reference value :  1.00214e-05
 Reference value :  1.00319e-05
 Reference value :  1.00531e-05
 Reference value :  1.00953e-05
 Reference value :  1.01787e-05
 Reference value :  1.02883e-05
 Reference value :  1.04849e-05
 Reference value :  1.08376e-05
 Reference value :  1.10005e-05
 Reference value :  1.10005e-05
 Reference value :  1.10006e-05
 Reference value :  1.10008e-05
 Reference value :  1.10010e-05
 Reference value :  1.10010e-05
 Reference value :  1.10011e-05
 Reference value :  1.10012e-05
 Reference value :  1.10015e-05
 Reference value :  1.10018e-05
 Reference value :  1.10022e-05
 Reference value :  1.10029e-05
 Reference value :  1.10039e-05
 Reference value :  1.10058e-05
 Reference value :  1.10096e-05
 Reference value :  1.10173e-05
 Reference value :  1.10327e-05
 Reference value :  1.10634e-05
 Reference value :  1.11249e-05
 Reference value :  1.12374e-05
 Reference value :  1.13938e-05
 Reference value :  1.16435e-05
 Reference value :  1.20000e-05
 Reference value :  1.20000e-05
 Reference value :  1.20001e-05
 Reference value :  1.20003e-05
 Reference value :  1.20005e-05
 Reference value :  1.20005e-05
 Reference value :  1.20005e-05
 Reference value :  1.20006e-05
 Reference value :  1.20007e-05
 Reference value :  1.20008e-05
 Reference value :  1.20011e-05
 Reference value :  1.20018e-05
 Reference value :  1.20031e-05
 Reference value :  1.20048e-05
 Reference value :  1.20078e-05
 Reference value :  1.20115e-05
 Reference value :  1.20161e-05
 Reference value :  1.20214e-05
 Reference value :  1.20319e-05
 Reference value :  1.20531e-05
 Reference value :  1.20953e-05
 Reference value :  1.21787e-05
 Reference value :  1.22884e-05
 Reference value :  1.24850e-05
 Reference value :  1.28376e-05
 Reference value :  1.30005e-05
 Reference value :  1.30006e-05
 Reference value :  1.30007e-05
 Reference value :  1.30009e-05
 Reference value :  1.30010e-05
 Reference value :  1.30010e-05
 Reference value :  1.30011e-05
 Reference value :  1.30012e-05
 Reference value :  1.30015e-05
 Reference value :  1.30018e-05
 Reference value :  1.30022e-05
 Reference value :  1.30029e-05
 Reference value :  1.30039e-05
 Reference value :  1.30058e-05
 Reference value :  1.30096e-05
 Reference value :  1.30173e-05
 Reference value :  1.30327e-05
 Reference value :  1.30634e-05
 Reference value :  1.31249e-05
 Reference value :  1.32373e-05
 Reference value :  1.33937e-05
 Reference value :  1.36433e-05
 Reference value :  1.40000e-05
 Reference value :  1.40000e-05
 Reference value :  1.40002e-05
 Reference value :  1.40004e-05
 Reference value :  1.40005e-05
 Reference value :  1.40005e-05
 Reference value :  1.40005e-05
 Reference value :  1.40006e-05
 Reference value :  1.40007e-05
 Reference value :  1.40008e-05
 Reference value :  1.40011e-05
 Reference value :  1.40018e-05
 Reference value :  1.40031e-05
 Reference value :  1.40048e-05
 Reference value :  1.40078e-05
 Reference value :  1.40115e-05
 Reference value :  1.40161e-05
 Reference value :  1.40214e-05
 Reference value :  1.40319e-05
 Reference value :  1.40531e-05
 Reference value :  1.40953e-05
 Reference value :  1.41787e-05
 Reference value :  1.42884e-05
 Reference value :  1.44850e-05
 Reference value :  1.48377e-05
 Reference value :  1.50005e-05
 Reference value :  1.50005e-05
 Reference value :  1.50007e-05
 Reference value :  1.50009e-05
 Reference value :  1.50010e-05
 Reference value :  1.50010e-05
 Reference value :  1.50011e-05
 Reference value :  1.50012e-05
 Reference value :  1.50015e-05
 Reference value :  1.50018e-05
 Reference value :  1.50022e-05
 Reference value :  1.50029e-05
 Reference value :  1.50039e-05
 Reference value :  1.50058e-05
 Reference value :  1.50096e-05
 Reference value :  1.50173e-05
 Reference value :  1.50327e-05
 Reference value :  1.50634e-05
 Reference value :  1.51250e-05
 Reference value :  1.52372e-05
 Reference value :  1.53936e-05
 Reference value :  1.56433e-05
 Reference value :  1.60000e-05
 Reference value :  1.60000e-05
 Reference value :  1.60001e-05
 Reference value :  1.60004e-05
 Reference value :  1.60005e-05
 Reference value :  1.60005e-05
 Reference value :  1.60005e-05
 Reference value :  1.60006e-05
 Reference value :  1.60007e-05
 Reference value :  1.60008e-05
 Reference value :  1.60011e-05
 Reference value :  1.60018e-05
 Reference value :  1.60031e-05
 Reference value :  1.60048e-05
 Reference value :  1.60078e-05
 Reference value :  1.60115e-05
 Reference value :  1.60161e-05
 Reference value :  1.60214e-05
 Reference value :  1.60319e-05
 Reference value :  1.60531e-05
 Reference value :  1.60953e-05
 Reference value :  1.61787e-05
 Reference value :  1.62884e-05
 Reference value :  1.64850e-05
 Reference value :  1.68376e-05
 Reference value :  1.70005e-05
 Reference value :  1.70006e-05
 Reference value :  1.70007e-05
 Reference value :  1.70009e-05
 Reference value :  1.70010e-05
 Reference value :  1.70010e-05
 Reference value :  1.70011e-05
 Reference value :  1.70012e-05
 Reference value :  1.70015e-05
 Reference value :  1.70018e-05
 Reference value :  1.70022e-05
 Reference value :  1.70029e-05
 Reference value :  1.70039e-05
 Reference value :  1.70058e-05
 Reference value :  1.70096e-05
 Reference value :  1.70173e-05
 Reference value :  1.70327e-05
 Reference value :  1.70634e-05
 Reference value :  1.71250e-05
 Reference value :  1.72372e-05
 Reference value :  1.73936e-05
 Reference value :  1.76432e-05
 Reference value :  1.80000e-05
 Reference value :  1.80001e-05
 Reference value :  1.80002e-05
 Reference value :  1.80004e-05
 Reference value :  1.80005e-05
 Reference value :  1.80005e-05
 Reference value :  1.80005e-05
 Reference value :  1.80006e-05
 Reference value :  1.80007e-05
 Reference value :  1.80008e-05
 Reference value :  1.80011e-05
 Reference value :  1.80018e-05
 Reference value :  1.80031e-05
 Reference value :  1.80048e-05
 Reference value :  1.80078e-05
 Reference value :  1.80115e-05
 Reference value :  1.80161e-05
 Reference value :  1.80214e-05
 Reference value :  1.80319e-05
 Reference value :  1.80531e-05
 Reference value :  1.80953e-05
 Reference value :  1.81787e-05
 Reference value :  1.82884e-05
 Reference value :  1.84850e-05
 Reference value :  1.88376e-05
 Reference value :  1.90005e-05
 Reference value :  1.90006e-05
 Reference value :  1.90007e-05
 Reference value :  1.90009e-05
 Reference value :  1.90010e-05
 Reference value :  1.90010e-05
 Reference value :  1.90011e-05
 Reference value :  1.90012e-05
 Reference value :  1.90015e-05
 Reference value :  1.90018e-05
 Reference value :  1.90022e-05
 Reference value :  1.90029e-05
 Reference value :  1.90039e-05
 Reference value :  1.90058e-05
 Reference value :  1.90096e-05
 Reference value :  1.90173e-05
 Reference value :  1.90327e-05
 Reference value :  1.90634e-05
 Reference value :  1.91250e-05
 Reference value :  1.92372e-05
 Reference value :  1.93936e-05
 Reference value :  1.96432e-05
 Reference value :  2.00000e-05
 Reference value :  2.00001e-05
 Reference value :  2.00002e-05
 Reference value :  2.00004e-05
 Reference value :  2.00005e-05
 Reference value :  2.00005e-05
 Reference value :  2.00005e-05
 Reference value :  2.00006e-05
 Reference value :  2.00007e-05
 Reference value :  2.00008e-05
 Reference value :  2.00011e-05
 Reference value :  2.00018e-05
 Reference value :  2.00031e-05
 Reference value :  2.00048e-05
 Reference value :  2.00078e-05
 Reference value :  2.00115e-05
 Reference value :  2.00161e-05
 Reference value :  2.00214e-05
 Reference value :  2.00319e-05
 Reference value :  2.00531e-05
 Reference value :  2.00953e-05
 Reference value :  2.01787e-05
 Reference value :  2.02884e-05
 Reference value :  2.04850e-05
 Reference value :  2.08376e-05
 Reference value :  2.10005e-05
 Reference value :  2.10005e-05
 Reference value :  2.10006e-05
 Reference value :  2.10008e-05
 Reference value :  2.10010e-05
 Reference value :  2.10010e-05
 Reference value :  2.10011e-05
 Reference value :  2.10012e-05
 Reference value :  2.10015e-05
 Reference value :  2.10018e-05
 Reference value :  2.10022e-05
 Reference value :  2.10029e-05
 Reference value :  2.10039e-05
 Reference value :  2.10058e-05
 Reference value :  2.10096e-05
 Reference value :  2.10173e-05
 Reference value :  2.10327e-05
 Reference value :  2.10634e-05
 Reference value :  2.11250e-05
 Reference value :  2.12372e-05
 Reference value :  2.13936e-05
 Reference value :  2.16432e-05
 Reference value :  2.20000e-05
 Reference value :  2.20000e-05
 Reference value :  2.20001e-05
 Reference value :  2.20004e-05
 Reference value :  2.20005e-05
 Reference value :  2.20005e-05
 Reference value :  2.20005e-05
 Reference value :  2.20006e-05
 Reference value :  2.20007e-05
 Reference value :  2.20008e-05
 Reference value :  2.20011e-05
 Reference value :  2.20018e-05
 Reference value :  2.20031e-05
 Reference value :  2.20048e-05
 Reference value :  2.20078e-05
 Reference value :  2.20115e-05
 Reference value :  2.20161e-05
 Reference value :  2.20214e-05
 Reference value :  2.20319e-05
 Reference value :  2.20531e-05
 Reference value :  2.20953e-05
 Reference value :  2.21787e-05
 Reference value :  2.22884e-05
 Reference value :  2.24850e-05
 Reference value :  2.28376e-05
 Reference value :  2.30005e-05
 Reference value :  2.30005e-05
 Reference value :  2.30006e-05
 Reference value :  2.30008e-05
 Reference value :  2.30010e-05
 Reference value :  2.30010e-05
 Reference value :  2.30011e-05
 Reference value :  2.30012e-05
 Reference value :  2.30015e-05
 Reference value :  2.30018e-05
 Reference value :  2.30022e-05
 Reference value :  2.30029e-05
 Reference value :  2.30039e-05
 Reference value :  2.30058e-05
 Reference value :  2.30096e-05
 Reference value :  2.30173e-05
 Reference value :  2.30327e-05
 Reference value :  2.30634e-05
 Reference value :  2.31250e-05
 Reference value :  2.32372e-05
 Reference value :  2.33936e-05
 Reference value :  2.36432e-05
 Reference value :  2.40000e-05
 Reference value :  2.40001e-05
 Reference value :  2.40002e-05
 Reference value :  2.40004e-05
 Reference value :  2.40005e-05
 Reference value :  2.40005e-05
 Reference value :  2.40005e-05
 Reference value :  2.40006e-05
 Reference value :  2.40007e-05
 Reference value :  2.40008e-05
 Reference value :  2.40011e-05
 Reference value :  2.40018e-05
 Reference value :  2.40031e-05
 Reference value :  2.40048e-05
 Reference value :  2.40078e-05
 Reference value :  2.40115e-05
 Reference value :  2.40161e-05
 Reference value :  2.40214e-05
 Reference value :  2.40319e-05
 Reference value :  2.40531e-05
 Reference value :  2.40953e-05
 Reference value :  2.41787e-05
 Reference value :  2.42884e-05
 Reference value :  2.44850e-05
 Reference value :  2.48376e-05
 Reference value :  2.50005e-05
 Reference value :  2.50005e-05
 Reference value :  2.50006e-05
 Reference value :  2.50008e-05
 Reference value :  2.50010e-05
 Reference value :  2.50010e-05
 Reference value :  2.50011e-05
 Reference value :  2.50012e-05
 Reference value :  2.50015e-05
 Reference value :  2.50018e-05
 Reference value :  2.50022e-05
 Reference value :  2.50029e-05
 Reference value :  2.50039e-05
 Reference value :  2.50058e-05
 Reference value :  2.50096e-05
 Reference value :  2.50173e-05
 Reference value :  2.50327e-05
 Reference value :  2.50634e-05
 Reference value :  2.51250e-05
 Reference value :  2.52372e-05
 Reference value :  2.53936e-05
 Reference value :  2.56432e-05
 Reference value :  2.60000e-05
 Reference value :  2.60001e-05
 Reference value :  2.60002e-05
 Reference value :  2.60004e-05
 Reference value :  2.60005e-05
 Reference value :  2.60005e-05
 Reference value :  2.60005e-05
 Reference value :  2.60006e-05
 Reference value :  2.60007e-05
 Reference value :  2.60008e-05
 Reference value :  2.60011e-05
 Reference value :  2.60018e-05
 Reference value :  2.60031e-05
 Reference value :  2.60048e-05
 Reference value :  2.60078e-05
 Reference value :  2.60115e-05
 Reference value :  2.60161e-05
 Reference value :  2.60214e-05
 Reference value :  2.60319e-05
 Reference value :  2.60531e-05
 Reference value :  2.60953e-05
 Reference value :  2.61787e-05
 Reference value :  2.62884e-05
 Reference value :  2.64850e-05
 Reference value :  2.68376e-05
 Reference value :  2.70005e-05
 Reference value :  2.70006e-05
 Reference value :  2.70007e-05
 Reference value :  2.70009e-05
 Reference value :  2.70010e-05
 Reference value :  2.70010e-05
 Reference value :  2.70011e-05
 Reference value :  2.70012e-05
 Reference value :  2.70015e-05
 Reference value :  2.70018e-05
 Reference value :  2.70022e-05
 Reference value :  2.70029e-05
 Reference value :  2.70039e-05
 Reference value :  2.70058e-05
 Reference value :  2.70096e-05
 Reference value :  2.70173e-05
 Reference value :  2.70327e-05
 Reference value :  2.70634e-05
 Reference value :  2.71250e-05
 Reference value :  2.72372e-05
 Reference value :  2.73936e-05
 Reference value :  2.76432e-05
 Reference value :  2.80000e-05
 Reference value :  2.80000e-05
 Reference value :  2.80001e-05
 Reference value :  2.80004e-05
 Reference value :  2.80005e-05
 Reference value :  2.80005e-05
 Reference value :  2.80005e-05
 Reference value :  2.80006e-05
 Reference value :  2.80007e-05
 Reference value :  2.80008e-05
 Reference value :  2.80011e-05
 Reference value :  2.80018e-05
 Reference value :  2.80031e-05
 Reference value :  2.80048e-05
 Reference value :  2.80078e-05
 Reference value :  2.80115e-05
 Reference value :  2.80161e-05
 Reference value :  2.80214e-05
 Reference value :  2.80319e-05
 Reference value :  2.80531e-05
 Reference value :  2.80953e-05
 Reference value :  2.81787e-05
 Reference value :  2.82884e-05
 Reference value :  2.84850e-05
 Reference value :  2.88376e-05
 Reference value :  2.90005e-05
 Reference value :  2.90006e-05
 Reference value :  2.90007e-05
 Reference value :  2.90009e-05
 Reference value :  2.90010e-05
 Reference value :  2.90010e-05
 Reference value :  2.90011e-05
 Reference value :  2.90012e-05
 Reference value :  2.90015e-05
 Reference value :  2.90018e-05
 Reference value :  2.90022e-05
 Reference value :  2.90029e-05
 Reference value :  2.90039e-05
 Reference value :  2.90058e-05
 Reference value :  2.90096e-05
 Reference value :  2.90173e-05
 Reference value :  2.90327e-05
 Reference value :  2.90634e-05
 Reference value :  2.91250e-05
 Reference value :  2.92372e-05
 Reference value :  2.93936e-05
 Reference value :  2.96432e-05
 Reference value :  3.00000e-05
 Reference value :  3.00001e-05
 Reference value :  3.00002e-05
 Reference value :  3.00004e-05
 Reference value :  3.00005e-05
 Reference value :  3.00005e-05
 Reference value :  3.00005e-05
 Reference value :  3.00006e-05
 Reference value :  3.00007e-05
 Reference value :  3.00008e-05
 Reference value :  3.00011e-05
 Reference value :  3.00018e-05
 Reference value :  3.00031e-05
 Reference value :  3.00048e-05
 Reference value :  3.00078e-05
 Reference value :  3.00115e-05
 Reference value :  3.00161e-05
 Reference value :  3.00214e-05
 Reference value :  3.00319e-05
 Reference value :  3.00531e-05
 Reference value :  3.00953e-05
 Reference value :  3.01787e-05
 Reference value :  3.02884e-05
 Reference value :  3.04850e-05
 Reference value :  3.08376e-05
 Reference value :  3.10005e-05
 Reference value :  3.10005e-05
 Reference value :  3.10006e-05
 Reference value :  3.10008e-05
 Reference value :  3.10010e-05
 Reference value :  3.10010e-05
 Reference value :  3.10011e-05
 Reference value :  3.10012e-05
 Reference value :  3.10015e-05
 Reference value :  3.10018e-05
 Reference value :  3.10022e-05
 Reference value :  3.10029e-05
 Reference value :  3.10039e-05
 Reference value :  3.10058e-05
 Reference value :  3.10096e-05
 Reference value :  3.10173e-05
 Reference value :  3.10327e-05
 Reference value :  3.10634e-05
 Reference value :  3.11250e-05
 Reference value :  3.12372e-05
 Reference value :  3.13936e-05
 Reference value :  3.16432e-05
 Reference value :  3.20000e-05
 Reference value :  3.20000e-05
 Reference value :  3.20001e-05
 Reference value :  3.20003e-05
 Reference value :  3.20005e-05
 Reference value :  3.20005e-05
 Reference value :  3.20005e-05
 Reference value :  3.20006e-05
 Reference value :  3.20007e-05
 Reference value :  3.20008e-05
 Reference value :  3.20011e-05
 Reference value :  3.20018e-05
 Reference value :  3.20031e-05
 Reference value :  3.20048e-05
 Reference value :  3.20078e-05
 Reference value :  3.20115e-05
 Reference value :  3.20161e-05
 Reference value :  3.20214e-05
 Reference value :  3.20319e-05
 Reference value :  3.20531e-05
 Reference value :  3.20953e-05
 Reference value :  3.21787e-05
 Reference value :  3.22884e-05
 Reference value :  3.24850e-05
 Reference value :  3.28376e-05
 Reference value :  3.30005e-05
 Reference value :  3.30006e-05
 Reference value :  3.30007e-05
 Reference value :  3.30009e-05
 Reference value :  3.30010e-05
 Reference value :  3.30010e-05
 Reference value :  3.30011e-05
 Reference value :  3.30012e-05
 Reference value :  3.30015e-05
 Reference value :  3.30018e-05
 Reference value :  3.30022e-05
 Reference value :  3.30029e-05
 Reference value :  3.30039e-05
 Reference value :  3.30058e-05
 Reference value :  3.30096e-05
 Reference value :  3.30173e-05
 Reference value :  3.30327e-05
 Reference value :  3.30635e-05
 Reference value :  3.31250e-05
 Reference value :  3.32372e-05
 Reference value :  3.33936e-05
 Reference value :  3.36432e-05
 Reference value :  3.40000e-05
No. of Data Rows : 889
ngspice-44 done
