
Note: Compatibility modes selected: hs a


Circuit: ** sch_path: /home/audrey/cace/sar-adc-using-sky130-pdk/runs/run_2025-08-29_18-10-06/parameters/power/run_04/power_consumption.sch

option SCALE: Scale is set to 1e-06 for instance and model parameters
option SCALE: Scale is set to 1e-06 for instance and model parameters
option SCALE: Scale is set to 1e-06 for instance and model parameters
option SCALE: Scale is set to 1e-06 for instance and model parameters
Doing analysis at TEMP = 27.000000 and TNOM = 27.000000

Using KLU as Direct Linear Solver
Operating point simulation skipped by 'uic',
  now using transient initial conditions.
 Reference value :  5.00000e-12
 Reference value :  5.14000e-12
 Reference value :  5.42000e-12
 Reference value :  7.10000e-12
 Reference value :  1.64396e-11
 Reference value :  6.16853e-11
 Reference value :  3.84846e-10
 Reference value :  5.17574e-10
 Reference value :  7.63617e-10
 Reference value :  1.31666e-09
 Reference value :  2.24734e-09
 Reference value :  2.87484e-09
 Reference value :  4.52153e-09
 Reference value :  5.46223e-09
 Reference value :  6.45017e-09
 Reference value :  8.23238e-09
 Reference value :  9.94306e-09
 Reference value :  1.09688e-08
 Reference value :  1.18493e-08
 Reference value :  1.26338e-08
 Reference value :  1.43558e-08
 Reference value :  1.73094e-08
 Reference value :  2.37055e-08
 Reference value :  2.79399e-08
 Reference value :  3.77190e-08
 Reference value :  5.99182e-08
 Reference value :  1.53664e-07
 Reference value :  4.52787e-07
 Reference value :  5.31791e-07
 Reference value :  7.22535e-07
 Reference value :  9.76861e-07
 Reference value :  1.00055e-06
 Reference value :  1.00085e-06
 Reference value :  1.00103e-06
 Reference value :  1.00120e-06
 Reference value :  1.00140e-06
 Reference value :  1.00203e-06
 Reference value :  1.00241e-06
 Reference value :  1.00283e-06
 Reference value :  1.00338e-06
 Reference value :  1.00416e-06
 Reference value :  1.00471e-06
 Reference value :  1.00533e-06
 Reference value :  1.00670e-06
 Reference value :  1.00747e-06
 Reference value :  1.01026e-06
 Reference value :  1.01588e-06
 Reference value :  1.03154e-06
 Reference value :  1.07574e-06
 Reference value :  1.34003e-06
 Reference value :  2.00000e-06
 Reference value :  2.00015e-06
 Reference value :  2.00050e-06
 Reference value :  2.00061e-06
 Reference value :  2.00103e-06
 Reference value :  2.00182e-06
 Reference value :  2.00228e-06
 Reference value :  2.00276e-06
 Reference value :  2.00326e-06
 Reference value :  2.00504e-06
 Reference value :  2.00578e-06
 Reference value :  2.00852e-06
 Reference value :  2.00968e-06
 Reference value :  2.01096e-06
 Reference value :  2.01233e-06
 Reference value :  2.01527e-06
 Reference value :  2.02358e-06
 Reference value :  2.05747e-06
 Reference value :  2.30331e-06
 Reference value :  3.00055e-06
 Reference value :  3.00100e-06
 Reference value :  3.00110e-06
 Reference value :  3.00148e-06
 Reference value :  3.00220e-06
 Reference value :  3.00313e-06
 Reference value :  3.00438e-06
 Reference value :  3.00551e-06
 Reference value :  3.00691e-06
 Reference value :  3.01163e-06
 Reference value :  3.01971e-06
 Reference value :  3.08977e-06
 Reference value :  3.65026e-06
 Reference value :  4.00015e-06
 Reference value :  4.00054e-06
 Reference value :  4.00075e-06
 Reference value :  4.00137e-06
 Reference value :  4.00228e-06
 Reference value :  4.00326e-06
 Reference value :  4.00437e-06
 Reference value :  4.00535e-06
 Reference value :  4.00657e-06
 Reference value :  4.01026e-06
 Reference value :  4.01339e-06
 Reference value :  4.01556e-06
 Reference value :  4.01781e-06
 Reference value :  4.02235e-06
 Reference value :  4.04677e-06
 Reference value :  4.14617e-06
 Reference value :  4.18619e-06
 Reference value :  4.21466e-06
 Reference value :  4.22928e-06
 Reference value :  4.25469e-06
 Reference value :  4.34594e-06
 Reference value :  4.78849e-06
 Reference value :  5.00065e-06
 Reference value :  5.00110e-06
 Reference value :  5.00175e-06
 Reference value :  5.00268e-06
 Reference value :  5.00384e-06
 Reference value :  5.00436e-06
 Reference value :  5.00554e-06
 Reference value :  5.00846e-06
 Reference value :  5.02171e-06
 Reference value :  5.39269e-06
 Reference value :  6.00005e-06
 Reference value :  6.00050e-06
 Reference value :  6.00103e-06
 Reference value :  6.00277e-06
 Reference value :  6.00382e-06
 Reference value :  6.00582e-06
 Reference value :  6.00643e-06
 Reference value :  6.00811e-06
 Reference value :  6.01102e-06
 Reference value :  6.01907e-06
 Reference value :  6.07749e-06
 Reference value :  7.00050e-06
 Reference value :  7.00085e-06
 Reference value :  7.00103e-06
 Reference value :  7.00148e-06
 Reference value :  7.00268e-06
 Reference value :  7.00384e-06
 Reference value :  7.00438e-06
 Reference value :  7.00551e-06
 Reference value :  7.00685e-06
 Reference value :  7.00951e-06
 Reference value :  7.01493e-06
 Reference value :  7.04512e-06
 Reference value :  7.32076e-06
 Reference value :  8.00005e-06
 Reference value :  8.00050e-06
 Reference value :  8.00061e-06
 Reference value :  8.00103e-06
 Reference value :  8.00228e-06
 Reference value :  8.00326e-06
 Reference value :  8.00491e-06
 Reference value :  8.00589e-06
 Reference value :  8.00829e-06
 Reference value :  8.01036e-06
 Reference value :  8.01223e-06
 Reference value :  8.01402e-06
 Reference value :  8.01560e-06
 Reference value :  8.01742e-06
 Reference value :  8.01841e-06
 Reference value :  8.02139e-06
 Reference value :  8.04373e-06
 Reference value :  8.05236e-06
 Reference value :  8.06759e-06
 Reference value :  8.07163e-06
 Reference value :  8.07504e-06
 Reference value :  8.08452e-06
 Reference value :  8.09795e-06
 Reference value :  8.14510e-06
 Reference value :  8.24339e-06
 Reference value :  8.45701e-06
 Reference value :  8.57612e-06
 Reference value :  8.74127e-06
 Reference value :  9.00055e-06
 Reference value :  9.00085e-06
 Reference value :  9.00103e-06
 Reference value :  9.00123e-06
 Reference value :  9.00175e-06
 Reference value :  9.00220e-06
 Reference value :  9.00313e-06
 Reference value :  9.00440e-06
 Reference value :  9.00562e-06
 Reference value :  9.00708e-06
 Reference value :  9.01008e-06
 Reference value :  9.02250e-06
 Reference value :  9.06133e-06
 Reference value :  9.42372e-06
 Reference value :  1.00000e-05
 Reference value :  1.00003e-05
 Reference value :  1.00006e-05
 Reference value :  1.00014e-05
 Reference value :  1.00023e-05
 Reference value :  1.00032e-05
 Reference value :  1.00049e-05
 Reference value :  1.00063e-05
 Reference value :  1.00080e-05
 Reference value :  1.00109e-05
 Reference value :  1.00268e-05
 Reference value :  1.02642e-05
 Reference value :  1.10006e-05
 Reference value :  1.10010e-05
 Reference value :  1.10011e-05
 Reference value :  1.10015e-05
 Reference value :  1.10022e-05
 Reference value :  1.10031e-05
 Reference value :  1.10044e-05
 Reference value :  1.10055e-05
 Reference value :  1.10069e-05
 Reference value :  1.10116e-05
 Reference value :  1.10298e-05
 Reference value :  1.11702e-05
 Reference value :  1.20000e-05
 Reference value :  1.20003e-05
 Reference value :  1.20006e-05
 Reference value :  1.20010e-05
 Reference value :  1.20023e-05
 Reference value :  1.20033e-05
 Reference value :  1.20044e-05
 Reference value :  1.20053e-05
 Reference value :  1.20066e-05
 Reference value :  1.20120e-05
 Reference value :  1.20134e-05
 Reference value :  1.20145e-05
 Reference value :  1.20167e-05
 Reference value :  1.20191e-05
 Reference value :  1.20223e-05
 Reference value :  1.20286e-05
 Reference value :  1.20465e-05
 Reference value :  1.20880e-05
 Reference value :  1.21378e-05
 Reference value :  1.21581e-05
 Reference value :  1.22097e-05
 Reference value :  1.23552e-05
 Reference value :  1.26087e-05
 Reference value :  1.30005e-05
 Reference value :  1.30006e-05
 Reference value :  1.30009e-05
 Reference value :  1.30010e-05
 Reference value :  1.30012e-05
 Reference value :  1.30017e-05
 Reference value :  1.30022e-05
 Reference value :  1.30031e-05
 Reference value :  1.30038e-05
 Reference value :  1.30044e-05
 Reference value :  1.30050e-05
 Reference value :  1.30056e-05
 Reference value :  1.30071e-05
 Reference value :  1.30101e-05
 Reference value :  1.30160e-05
 Reference value :  1.30612e-05
 Reference value :  1.32163e-05
 Reference value :  1.38367e-05
 Reference value :  1.40000e-05
 Reference value :  1.40004e-05
 Reference value :  1.40005e-05
 Reference value :  1.40007e-05
 Reference value :  1.40014e-05
 Reference value :  1.40023e-05
 Reference value :  1.40032e-05
 Reference value :  1.40038e-05
 Reference value :  1.40049e-05
 Reference value :  1.40063e-05
 Reference value :  1.40080e-05
 Reference value :  1.40089e-05
 Reference value :  1.40109e-05
 Reference value :  1.40189e-05
 Reference value :  1.40425e-05
 Reference value :  1.42636e-05
 Reference value :  1.50005e-05
 Reference value :  1.50007e-05
 Reference value :  1.50010e-05
 Reference value :  1.50012e-05
 Reference value :  1.50015e-05
 Reference value :  1.50022e-05
 Reference value :  1.50038e-05
 Reference value :  1.50044e-05
 Reference value :  1.50050e-05
 Reference value :  1.50055e-05
 Reference value :  1.50069e-05
 Reference value :  1.50094e-05
 Reference value :  1.50147e-05
 Reference value :  1.50498e-05
 Reference value :  1.53308e-05
 Reference value :  1.60000e-05
 Reference value :  1.60004e-05
 Reference value :  1.60005e-05
 Reference value :  1.60007e-05
 Reference value :  1.60014e-05
 Reference value :  1.60023e-05
 Reference value :  1.60033e-05
 Reference value :  1.60044e-05
 Reference value :  1.60053e-05
 Reference value :  1.60059e-05
 Reference value :  1.60066e-05
 Reference value :  1.60073e-05
 Reference value :  1.60103e-05
 Reference value :  1.60120e-05
 Reference value :  1.60149e-05
 Reference value :  1.60170e-05
 Reference value :  1.60195e-05
 Reference value :  1.60208e-05
 Reference value :  1.60255e-05
 Reference value :  1.60354e-05
 Reference value :  1.60416e-05
 Reference value :  1.60478e-05
 Reference value :  1.60523e-05
 Reference value :  1.60620e-05
 Reference value :  1.60794e-05
 Reference value :  1.60863e-05
 Reference value :  1.61289e-05
 Reference value :  1.62152e-05
 Reference value :  1.64107e-05
 Reference value :  1.65164e-05
 Reference value :  1.65572e-05
 Reference value :  1.66724e-05
 Reference value :  1.70005e-05
 Reference value :  1.70007e-05
 Reference value :  1.70010e-05
 Reference value :  1.70012e-05
 Reference value :  1.70017e-05
 Reference value :  1.70021e-05
 Reference value :  1.70025e-05
 Reference value :  1.70036e-05
 Reference value :  1.70048e-05
 Reference value :  1.70066e-05
 Reference value :  1.70107e-05
 Reference value :  1.70250e-05
 Reference value :  1.71098e-05
 Reference value :  1.77724e-05
 Reference value :  1.80001e-05
 Reference value :  1.80002e-05
 Reference value :  1.80005e-05
 Reference value :  1.80006e-05
 Reference value :  1.80010e-05
 Reference value :  1.80019e-05
 Reference value :  1.80023e-05
 Reference value :  1.80028e-05
 Reference value :  1.80033e-05
 Reference value :  1.80044e-05
 Reference value :  1.80058e-05
 Reference value :  1.80064e-05
 Reference value :  1.80080e-05
 Reference value :  1.80100e-05
 Reference value :  1.80123e-05
 Reference value :  1.80199e-05
 Reference value :  1.80547e-05
 Reference value :  1.82967e-05
 Reference value :  1.90005e-05
 Reference value :  1.90009e-05
 Reference value :  1.90010e-05
 Reference value :  1.90014e-05
 Reference value :  1.90025e-05
 Reference value :  1.90036e-05
 Reference value :  1.90048e-05
 Reference value :  1.90059e-05
 Reference value :  1.90075e-05
 Reference value :  1.90133e-05
 Reference value :  1.90261e-05
 Reference value :  1.91146e-05
 Reference value :  1.94053e-05
 Reference value :  2.00001e-05
 Reference value :  2.00004e-05
 Reference value :  2.00005e-05
 Reference value :  2.00010e-05
 Reference value :  2.00019e-05
 Reference value :  2.00028e-05
 Reference value :  2.00033e-05
 Reference value :  2.00044e-05
 Reference value :  2.00055e-05
 Reference value :  2.00068e-05
 Reference value :  2.00090e-05
 Reference value :  2.00108e-05
 Reference value :  2.00123e-05
 Reference value :  2.00150e-05
 Reference value :  2.00171e-05
 Reference value :  2.00194e-05
 Reference value :  2.00254e-05
 Reference value :  2.00291e-05
 Reference value :  2.00368e-05
 Reference value :  2.00400e-05
 Reference value :  2.00468e-05
 Reference value :  2.00575e-05
 Reference value :  2.00721e-05
 Reference value :  2.01246e-05
 Reference value :  2.03715e-05
 Reference value :  2.10005e-05
 Reference value :  2.10010e-05
 Reference value :  2.10011e-05
 Reference value :  2.10014e-05
 Reference value :  2.10021e-05
 Reference value :  2.10025e-05
 Reference value :  2.10036e-05
 Reference value :  2.10048e-05
 Reference value :  2.10059e-05
 Reference value :  2.10073e-05
 Reference value :  2.10135e-05
 Reference value :  2.10390e-05
 Reference value :  2.12071e-05
 Reference value :  2.20000e-05
 Reference value :  2.20001e-05
 Reference value :  2.20005e-05
 Reference value :  2.20006e-05
 Reference value :  2.20010e-05
 Reference value :  2.20019e-05
 Reference value :  2.20023e-05
 Reference value :  2.20033e-05
 Reference value :  2.20045e-05
 Reference value :  2.20059e-05
 Reference value :  2.20065e-05
 Reference value :  2.20082e-05
 Reference value :  2.20101e-05
 Reference value :  2.20125e-05
 Reference value :  2.20235e-05
 Reference value :  2.20535e-05
 Reference value :  2.23291e-05
 Reference value :  2.30005e-05
 Reference value :  2.30008e-05
 Reference value :  2.30010e-05
 Reference value :  2.30012e-05
 Reference value :  2.30017e-05
 Reference value :  2.30025e-05
 Reference value :  2.30036e-05
 Reference value :  2.30048e-05
 Reference value :  2.30059e-05
 Reference value :  2.30066e-05
 Reference value :  2.30083e-05
 Reference value :  2.30102e-05
 Reference value :  2.30138e-05
 Reference value :  2.30301e-05
 Reference value :  2.31098e-05
 Reference value :  2.36747e-05
 Reference value :  2.40002e-05
 Reference value :  2.40005e-05
 Reference value :  2.40007e-05
 Reference value :  2.40019e-05
 Reference value :  2.40028e-05
 Reference value :  2.40038e-05
 Reference value :  2.40050e-05
 Reference value :  2.40055e-05
 Reference value :  2.40076e-05
 Reference value :  2.40097e-05
 Reference value :  2.40117e-05
 Reference value :  2.40139e-05
 Reference value :  2.40169e-05
 Reference value :  2.40190e-05
 Reference value :  2.40244e-05
 Reference value :  2.40470e-05
 Reference value :  2.41173e-05
 Reference value :  2.43787e-05
 Reference value :  2.50005e-05
 Reference value :  2.50010e-05
 Reference value :  2.50014e-05
 Reference value :  2.50025e-05
 Reference value :  2.50036e-05
 Reference value :  2.50048e-05
 Reference value :  2.50059e-05
 Reference value :  2.50073e-05
 Reference value :  2.50134e-05
 Reference value :  2.50621e-05
 Reference value :  2.57731e-05
 Reference value :  2.60002e-05
 Reference value :  2.60005e-05
 Reference value :  2.60010e-05
 Reference value :  2.60019e-05
 Reference value :  2.60027e-05
 Reference value :  2.60039e-05
 Reference value :  2.60052e-05
 Reference value :  2.60065e-05
 Reference value :  2.60091e-05
 Reference value :  2.60125e-05
 Reference value :  2.60242e-05
 Reference value :  2.61914e-05
 Reference value :  2.67259e-05
 Reference value :  2.70006e-05
 Reference value :  2.70007e-05
 Reference value :  2.70010e-05
 Reference value :  2.70011e-05
 Reference value :  2.70014e-05
 Reference value :  2.70025e-05
 Reference value :  2.70043e-05
 Reference value :  2.70054e-05
 Reference value :  2.70066e-05
 Reference value :  2.70083e-05
 Reference value :  2.70092e-05
 Reference value :  2.70120e-05
 Reference value :  2.70301e-05
 Reference value :  2.71891e-05
 Reference value :  2.80000e-05
 Reference value :  2.80000e-05
 Reference value :  2.80004e-05
 Reference value :  2.80005e-05
 Reference value :  2.80007e-05
 Reference value :  2.80014e-05
 Reference value :  2.80023e-05
 Reference value :  2.80033e-05
 Reference value :  2.80038e-05
 Reference value :  2.80044e-05
 Reference value :  2.80050e-05
 Reference value :  2.80055e-05
 Reference value :  2.80061e-05
 Reference value :  2.80076e-05
 Reference value :  2.80097e-05
 Reference value :  2.80107e-05
 Reference value :  2.80128e-05
 Reference value :  2.80148e-05
 Reference value :  2.80168e-05
 Reference value :  2.80189e-05
 Reference value :  2.80220e-05
 Reference value :  2.80276e-05
 Reference value :  2.80542e-05
 Reference value :  2.82711e-05
 Reference value :  2.90005e-05
 Reference value :  2.90009e-05
 Reference value :  2.90011e-05
 Reference value :  2.90014e-05
 Reference value :  2.90021e-05
 Reference value :  2.90025e-05
 Reference value :  2.90036e-05
 Reference value :  2.90043e-05
 Reference value :  2.90048e-05
 Reference value :  2.90059e-05
 Reference value :  2.90066e-05
 Reference value :  2.90073e-05
 Reference value :  2.90107e-05
 Reference value :  2.90172e-05
 Reference value :  2.90621e-05
 Reference value :  2.92041e-05
 Reference value :  3.00000e-05
 Reference value :  3.00002e-05
 Reference value :  3.00005e-05
 Reference value :  3.00006e-05
 Reference value :  3.00010e-05
 Reference value :  3.00019e-05
 Reference value :  3.00023e-05
 Reference value :  3.00033e-05
 Reference value :  3.00045e-05
 Reference value :  3.00059e-05
 Reference value :  3.00065e-05
 Reference value :  3.00082e-05
 Reference value :  3.00101e-05
 Reference value :  3.00125e-05
 Reference value :  3.00242e-05
 Reference value :  3.00577e-05
 Reference value :  3.03694e-05
 Reference value :  3.10005e-05
 Reference value :  3.10008e-05
 Reference value :  3.10010e-05
 Reference value :  3.10012e-05
 Reference value :  3.10017e-05
 Reference value :  3.10025e-05
 Reference value :  3.10036e-05
 Reference value :  3.10048e-05
 Reference value :  3.10059e-05
 Reference value :  3.10066e-05
 Reference value :  3.10083e-05
 Reference value :  3.10092e-05
 Reference value :  3.10120e-05
 Reference value :  3.10215e-05
 Reference value :  3.10681e-05
 Reference value :  3.11896e-05
 Reference value :  3.20000e-05
 Reference value :  3.20001e-05
 Reference value :  3.20005e-05
 Reference value :  3.20006e-05
 Reference value :  3.20010e-05
 Reference value :  3.20019e-05
 Reference value :  3.20023e-05
 Reference value :  3.20033e-05
 Reference value :  3.20044e-05
 Reference value :  3.20055e-05
 Reference value :  3.20068e-05
 Reference value :  3.20083e-05
 Reference value :  3.20098e-05
 Reference value :  3.20125e-05
 Reference value :  3.20198e-05
 Reference value :  3.20320e-05
 Reference value :  3.20485e-05
 Reference value :  3.20613e-05
 Reference value :  3.20947e-05
 Reference value :  3.21887e-05
 Reference value :  3.25836e-05
 Reference value :  3.30006e-05
 Reference value :  3.30009e-05
 Reference value :  3.30010e-05
 Reference value :  3.30012e-05
 Reference value :  3.30017e-05
 Reference value :  3.30026e-05
 Reference value :  3.30037e-05
 Reference value :  3.30051e-05
 Reference value :  3.30069e-05
 Reference value :  3.30120e-05
 Reference value :  3.30284e-05
 Reference value :  3.31120e-05
 Reference value :  3.36909e-05
No. of Data Rows : 1271
ngspice-44 done
