
Note: Compatibility modes selected: hs a


Circuit: ** sch_path: /home/samantha/cace/sar-adc-using-sky130-pdk/runs/run_2025-09-03_21-34-21/parameters/sampling_rate/run_01/sampling_rate.sch

option SCALE: Scale is set to 1e-06 for instance and model parameters
option SCALE: Scale is set to 1e-06 for instance and model parameters
option SCALE: Scale is set to 1e-06 for instance and model parameters
option SCALE: Scale is set to 1e-06 for instance and model parameters
Doing analysis at TEMP = 27.000000 and TNOM = 27.000000

Using KLU as Direct Linear Solver
Operating point simulation skipped by 'uic',
  now using transient initial conditions.
 Reference value :  1.00000e-12
 Reference value :  1.02800e-12
 Reference value :  1.19600e-12
 Reference value :  1.72482e-12
 Reference value :  3.26089e-12
 Reference value :  6.52618e-12
 Reference value :  1.39154e-11
 Reference value :  3.48606e-11
 Reference value :  1.00000e-10
 Reference value :  1.16756e-10
 Reference value :  1.83781e-10
 Reference value :  4.51880e-10
 Reference value :  6.85295e-10
 Reference value :  1.35973e-09
 Reference value :  2.49643e-09
 Reference value :  4.02646e-09
 Reference value :  4.96483e-09
 Reference value :  5.94269e-09
 Reference value :  6.58268e-09
 Reference value :  7.86088e-09
 Reference value :  1.03979e-08
 Reference value :  1.44237e-08
 Reference value :  2.16049e-08
 Reference value :  2.42301e-08
 Reference value :  2.90736e-08
 Reference value :  3.66168e-08
 Reference value :  9.69831e-08
 Reference value :  2.50100e-07
 Reference value :  2.50130e-07
 Reference value :  2.50200e-07
 Reference value :  2.50223e-07
 Reference value :  2.50254e-07
 Reference value :  2.50390e-07
 Reference value :  2.50528e-07
 Reference value :  2.50950e-07
 Reference value :  2.51671e-07
 Reference value :  2.52084e-07
 Reference value :  2.52636e-07
 Reference value :  2.53198e-07
 Reference value :  2.53685e-07
 Reference value :  2.54204e-07
 Reference value :  2.54738e-07
 Reference value :  2.55433e-07
 Reference value :  2.57381e-07
 Reference value :  2.58683e-07
 Reference value :  2.63830e-07
 Reference value :  2.69544e-07
 Reference value :  2.96000e-07
 Reference value :  3.80468e-07
 Reference value :  5.00000e-07
 Reference value :  5.00010e-07
 Reference value :  5.00030e-07
 Reference value :  5.00070e-07
 Reference value :  5.00100e-07
 Reference value :  5.00108e-07
 Reference value :  5.00124e-07
 Reference value :  5.00156e-07
 Reference value :  5.00219e-07
 Reference value :  5.00337e-07
 Reference value :  5.00513e-07
 Reference value :  5.00822e-07
 Reference value :  5.01183e-07
 Reference value :  5.01532e-07
 Reference value :  5.01943e-07
 Reference value :  5.02339e-07
 Reference value :  5.02819e-07
 Reference value :  5.03899e-07
 Reference value :  5.05369e-07
 Reference value :  5.06413e-07
 Reference value :  5.08633e-07
 Reference value :  5.09727e-07
 Reference value :  5.11224e-07
 Reference value :  5.12532e-07
 Reference value :  5.13919e-07
 Reference value :  5.15702e-07
 Reference value :  5.17580e-07
 Reference value :  5.20888e-07
 Reference value :  5.34438e-07
 Reference value :  5.82838e-07
 Reference value :  6.45868e-07
 Reference value :  7.50100e-07
 Reference value :  7.50110e-07
 Reference value :  7.50130e-07
 Reference value :  7.50170e-07
 Reference value :  7.50200e-07
 Reference value :  7.50224e-07
 Reference value :  7.50320e-07
 Reference value :  7.50448e-07
 Reference value :  7.50584e-07
 Reference value :  7.51288e-07
 Reference value :  7.52148e-07
 Reference value :  7.52768e-07
 Reference value :  7.53304e-07
 Reference value :  7.53898e-07
 Reference value :  7.55053e-07
 Reference value :  7.55748e-07
 Reference value :  7.57384e-07
 Reference value :  7.58180e-07
 Reference value :  7.59512e-07
 Reference value :  7.63520e-07
 Reference value :  7.73601e-07
 Reference value :  8.13923e-07
 Reference value :  9.75213e-07
 Reference value :  1.00001e-06
 Reference value :  1.00007e-06
 Reference value :  1.00010e-06
 Reference value :  1.00011e-06
 Reference value :  1.00016e-06
 Reference value :  1.00034e-06
 Reference value :  1.00082e-06
 Reference value :  1.00118e-06
 Reference value :  1.00158e-06
 Reference value :  1.00242e-06
 Reference value :  1.00290e-06
 Reference value :  1.00342e-06
 Reference value :  1.00389e-06
 Reference value :  1.00439e-06
 Reference value :  1.00482e-06
 Reference value :  1.00596e-06
 Reference value :  1.00765e-06
 Reference value :  1.00846e-06
 Reference value :  1.00931e-06
 Reference value :  1.01016e-06
 Reference value :  1.01111e-06
 Reference value :  1.01189e-06
 Reference value :  1.01266e-06
 Reference value :  1.01349e-06
 Reference value :  1.01524e-06
 Reference value :  1.01618e-06
 Reference value :  1.01716e-06
 Reference value :  1.01871e-06
 Reference value :  1.02346e-06
 Reference value :  1.03658e-06
 Reference value :  1.13312e-06
 Reference value :  1.25010e-06
 Reference value :  1.25013e-06
 Reference value :  1.25020e-06
 Reference value :  1.25022e-06
 Reference value :  1.25032e-06
 Reference value :  1.25058e-06
 Reference value :  1.25129e-06
 Reference value :  1.25172e-06
 Reference value :  1.25215e-06
 Reference value :  1.25277e-06
 Reference value :  1.25331e-06
 Reference value :  1.25389e-06
 Reference value :  1.25508e-06
 Reference value :  1.25599e-06
 Reference value :  1.25862e-06
 Reference value :  1.26094e-06
 Reference value :  1.27199e-06
 Reference value :  1.31343e-06
 Reference value :  1.36868e-06
 Reference value :  1.47917e-06
 Reference value :  1.50001e-06
 Reference value :  1.50007e-06
 Reference value :  1.50011e-06
 Reference value :  1.50016e-06
 Reference value :  1.50022e-06
 Reference value :  1.50051e-06
 Reference value :  1.50118e-06
 Reference value :  1.50154e-06
 Reference value :  1.50195e-06
 Reference value :  1.50235e-06
 Reference value :  1.50282e-06
 Reference value :  1.50333e-06
 Reference value :  1.50389e-06
 Reference value :  1.50464e-06
 Reference value :  1.50537e-06
 Reference value :  1.50595e-06
 Reference value :  1.50665e-06
 Reference value :  1.50740e-06
 Reference value :  1.50822e-06
 Reference value :  1.50923e-06
 Reference value :  1.51025e-06
 Reference value :  1.51231e-06
 Reference value :  1.52419e-06
 Reference value :  1.57086e-06
 Reference value :  1.75010e-06
 Reference value :  1.75013e-06
 Reference value :  1.75017e-06
 Reference value :  1.75021e-06
 Reference value :  1.75022e-06
 Reference value :  1.75032e-06
 Reference value :  1.75045e-06
 Reference value :  1.75058e-06
 Reference value :  1.75129e-06
 Reference value :  1.75172e-06
 Reference value :  1.75215e-06
 Reference value :  1.75277e-06
 Reference value :  1.75330e-06
 Reference value :  1.75389e-06
 Reference value :  1.75444e-06
 Reference value :  1.75500e-06
 Reference value :  1.75570e-06
 Reference value :  1.75728e-06
 Reference value :  1.75957e-06
 Reference value :  1.76090e-06
 Reference value :  1.76353e-06
 Reference value :  1.76662e-06
 Reference value :  1.78514e-06
 Reference value :  1.85924e-06
 Reference value :  1.95803e-06
 Reference value :  2.00000e-06
 Reference value :  2.00003e-06
 Reference value :  2.00010e-06
 Reference value :  2.00016e-06
 Reference value :  2.00034e-06
 Reference value :  2.00051e-06
 Reference value :  2.00082e-06
 Reference value :  2.00118e-06
 Reference value :  2.00158e-06
 Reference value :  2.00201e-06
 Reference value :  2.00242e-06
 Reference value :  2.00290e-06
 Reference value :  2.00390e-06
 Reference value :  2.00440e-06
 Reference value :  2.00483e-06
 Reference value :  2.00533e-06
 Reference value :  2.00597e-06
 Reference value :  2.00665e-06
 Reference value :  2.00767e-06
 Reference value :  2.00847e-06
 Reference value :  2.00932e-06
 Reference value :  2.01017e-06
 Reference value :  2.01112e-06
 Reference value :  2.01188e-06
 Reference value :  2.01348e-06
 Reference value :  2.01522e-06
 Reference value :  2.01615e-06
 Reference value :  2.01863e-06
 Reference value :  2.02323e-06
 Reference value :  2.03579e-06
 Reference value :  2.04961e-06
 Reference value :  2.10900e-06
 Reference value :  2.25010e-06
 Reference value :  2.25013e-06
 Reference value :  2.25020e-06
 Reference value :  2.25022e-06
 Reference value :  2.25032e-06
 Reference value :  2.25058e-06
 Reference value :  2.25129e-06
 Reference value :  2.25215e-06
 Reference value :  2.25277e-06
 Reference value :  2.25331e-06
 Reference value :  2.25389e-06
 Reference value :  2.25450e-06
 Reference value :  2.25508e-06
 Reference value :  2.25706e-06
 Reference value :  2.26093e-06
 Reference value :  2.27198e-06
 Reference value :  2.31261e-06
 Reference value :  2.47513e-06
 Reference value :  2.50001e-06
 Reference value :  2.50007e-06
 Reference value :  2.50011e-06
 Reference value :  2.50016e-06
 Reference value :  2.50034e-06
 Reference value :  2.50082e-06
 Reference value :  2.50154e-06
 Reference value :  2.50195e-06
 Reference value :  2.50282e-06
 Reference value :  2.50333e-06
 Reference value :  2.50464e-06
 Reference value :  2.50537e-06
 Reference value :  2.50595e-06
 Reference value :  2.50665e-06
 Reference value :  2.50740e-06
 Reference value :  2.50822e-06
 Reference value :  2.51025e-06
 Reference value :  2.51642e-06
 Reference value :  2.53962e-06
 Reference value :  2.75010e-06
 Reference value :  2.75013e-06
 Reference value :  2.75020e-06
 Reference value :  2.75022e-06
 Reference value :  2.75032e-06
 Reference value :  2.75058e-06
 Reference value :  2.75129e-06
 Reference value :  2.75172e-06
 Reference value :  2.75215e-06
 Reference value :  2.75277e-06
 Reference value :  2.75330e-06
 Reference value :  2.75389e-06
 Reference value :  2.75444e-06
 Reference value :  2.75500e-06
 Reference value :  2.75570e-06
 Reference value :  2.75648e-06
 Reference value :  2.75810e-06
 Reference value :  2.75957e-06
 Reference value :  2.76353e-06
 Reference value :  2.76662e-06
 Reference value :  2.78514e-06
 Reference value :  2.80984e-06
 Reference value :  2.95804e-06
 Reference value :  3.00001e-06
 Reference value :  3.00007e-06
 Reference value :  3.00010e-06
 Reference value :  3.00012e-06
 Reference value :  3.00016e-06
 Reference value :  3.00034e-06
 Reference value :  3.00051e-06
 Reference value :  3.00082e-06
 Reference value :  3.00118e-06
 Reference value :  3.00158e-06
 Reference value :  3.00201e-06
 Reference value :  3.00242e-06
 Reference value :  3.00290e-06
 Reference value :  3.00342e-06
 Reference value :  3.00390e-06
 Reference value :  3.00440e-06
 Reference value :  3.00483e-06
 Reference value :  3.00597e-06
 Reference value :  3.00767e-06
 Reference value :  3.00847e-06
 Reference value :  3.00932e-06
 Reference value :  3.01017e-06
 Reference value :  3.01112e-06
 Reference value :  3.01188e-06
 Reference value :  3.01347e-06
 Reference value :  3.01521e-06
 Reference value :  3.01614e-06
 Reference value :  3.01860e-06
 Reference value :  3.02314e-06
 Reference value :  3.03547e-06
 Reference value :  3.06666e-06
 Reference value :  3.11032e-06
 Reference value :  3.13083e-06
 Reference value :  3.17032e-06
 Reference value :  3.20183e-06
 Reference value :  3.21651e-06
 Reference value :  3.25010e-06
 Reference value :  3.25013e-06
 Reference value :  3.25020e-06
 Reference value :  3.25022e-06
 Reference value :  3.25032e-06
 Reference value :  3.25058e-06
 Reference value :  3.25129e-06
 Reference value :  3.25215e-06
 Reference value :  3.25277e-06
 Reference value :  3.25331e-06
 Reference value :  3.25389e-06
 Reference value :  3.25450e-06
 Reference value :  3.25599e-06
 Reference value :  3.25705e-06
 Reference value :  3.26093e-06
 Reference value :  3.27196e-06
 Reference value :  3.31231e-06
 Reference value :  3.42227e-06
 Reference value :  3.50000e-06
 Reference value :  3.50003e-06
 Reference value :  3.50007e-06
 Reference value :  3.50011e-06
 Reference value :  3.50016e-06
 Reference value :  3.50034e-06
 Reference value :  3.50082e-06
 Reference value :  3.50154e-06
 Reference value :  3.50235e-06
 Reference value :  3.50282e-06
 Reference value :  3.50333e-06
 Reference value :  3.50465e-06
 Reference value :  3.50537e-06
 Reference value :  3.50595e-06
 Reference value :  3.50665e-06
 Reference value :  3.50740e-06
 Reference value :  3.50922e-06
 Reference value :  3.51231e-06
 Reference value :  3.52413e-06
 Reference value :  3.63205e-06
 Reference value :  3.75011e-06
 Reference value :  3.75013e-06
 Reference value :  3.75020e-06
 Reference value :  3.75022e-06
 Reference value :  3.75032e-06
 Reference value :  3.75058e-06
 Reference value :  3.75129e-06
 Reference value :  3.75215e-06
 Reference value :  3.75330e-06
 Reference value :  3.75444e-06
 Reference value :  3.75570e-06
 Reference value :  3.75728e-06
 Reference value :  3.75957e-06
 Reference value :  3.76353e-06
 Reference value :  3.77280e-06
 Reference value :  3.78515e-06
 Reference value :  3.80985e-06
 Reference value :  3.85927e-06
 Reference value :  4.00000e-06
 Reference value :  4.00003e-06
 Reference value :  4.00007e-06
 Reference value :  4.00011e-06
 Reference value :  4.00016e-06
 Reference value :  4.00034e-06
 Reference value :  4.00082e-06
 Reference value :  4.00158e-06
 Reference value :  4.00242e-06
 Reference value :  4.00290e-06
 Reference value :  4.00342e-06
 Reference value :  4.00390e-06
 Reference value :  4.00483e-06
 Reference value :  4.00597e-06
 Reference value :  4.00768e-06
 Reference value :  4.00848e-06
 Reference value :  4.00932e-06
 Reference value :  4.01017e-06
 Reference value :  4.01112e-06
 Reference value :  4.01190e-06
 Reference value :  4.01352e-06
 Reference value :  4.01440e-06
 Reference value :  4.01623e-06
 Reference value :  4.01877e-06
 Reference value :  4.02356e-06
 Reference value :  4.02709e-06
 Reference value :  4.03099e-06
 Reference value :  4.03588e-06
 Reference value :  4.04041e-06
 Reference value :  4.04361e-06
 Reference value :  4.04991e-06
 Reference value :  4.06069e-06
 Reference value :  4.08096e-06
 Reference value :  4.10561e-06
 Reference value :  4.14369e-06
 Reference value :  4.25010e-06
 Reference value :  4.25013e-06
 Reference value :  4.25020e-06
 Reference value :  4.25022e-06
 Reference value :  4.25032e-06
 Reference value :  4.25053e-06
 Reference value :  4.25096e-06
 Reference value :  4.25180e-06
 Reference value :  4.25291e-06
 Reference value :  4.25418e-06
 Reference value :  4.25547e-06
 Reference value :  4.25777e-06
 Reference value :  4.26231e-06
 Reference value :  4.27734e-06
 Reference value :  4.33745e-06
 Reference value :  4.50000e-06
 Reference value :  4.50003e-06
 Reference value :  4.50010e-06
 Reference value :  4.50012e-06
 Reference value :  4.50022e-06
 Reference value :  4.50035e-06
 Reference value :  4.50058e-06
 Reference value :  4.50090e-06
 Reference value :  4.50183e-06
 Reference value :  4.50230e-06
 Reference value :  4.50281e-06
 Reference value :  4.50395e-06
 Reference value :  4.50459e-06
 Reference value :  4.50537e-06
 Reference value :  4.50595e-06
 Reference value :  4.50662e-06
 Reference value :  4.50747e-06
 Reference value :  4.50835e-06
 Reference value :  4.50921e-06
 Reference value :  4.51025e-06
 Reference value :  4.51364e-06
 Reference value :  4.51678e-06
 Reference value :  4.53242e-06
 Reference value :  4.54921e-06
 Reference value :  4.58278e-06
 Reference value :  4.75010e-06
 Reference value :  4.75013e-06
 Reference value :  4.75020e-06
 Reference value :  4.75021e-06
 Reference value :  4.75026e-06
 Reference value :  4.75039e-06
 Reference value :  4.75071e-06
 Reference value :  4.75140e-06
 Reference value :  4.75180e-06
 Reference value :  4.75227e-06
 Reference value :  4.75290e-06
 Reference value :  4.75414e-06
 Reference value :  4.75472e-06
 Reference value :  4.75607e-06
 Reference value :  4.75856e-06
 Reference value :  4.76458e-06
 Reference value :  4.78737e-06
 Reference value :  4.87853e-06
 Reference value :  5.00001e-06
 Reference value :  5.00007e-06
 Reference value :  5.00010e-06
 Reference value :  5.00011e-06
 Reference value :  5.00012e-06
 Reference value :  5.00016e-06
 Reference value :  5.00035e-06
 Reference value :  5.00090e-06
 Reference value :  5.00183e-06
 Reference value :  5.00281e-06
 Reference value :  5.00394e-06
 Reference value :  5.00445e-06
 Reference value :  5.00492e-06
 Reference value :  5.00617e-06
 Reference value :  5.00840e-06
 Reference value :  5.00990e-06
 Reference value :  5.01120e-06
 Reference value :  5.01226e-06
 Reference value :  5.01328e-06
 Reference value :  5.01436e-06
 Reference value :  5.01535e-06
 Reference value :  5.01754e-06
 Reference value :  5.01919e-06
 Reference value :  5.02420e-06
 Reference value :  5.02908e-06
 Reference value :  5.04826e-06
 Reference value :  5.06013e-06
 Reference value :  5.10439e-06
 Reference value :  5.21307e-06
 Reference value :  5.25011e-06
 Reference value :  5.25013e-06
 Reference value :  5.25020e-06
 Reference value :  5.25022e-06
 Reference value :  5.25032e-06
 Reference value :  5.25053e-06
 Reference value :  5.25095e-06
 Reference value :  5.25136e-06
 Reference value :  5.25178e-06
 Reference value :  5.25223e-06
 Reference value :  5.25284e-06
 Reference value :  5.25348e-06
 Reference value :  5.25405e-06
 Reference value :  5.25465e-06
 Reference value :  5.25525e-06
 Reference value :  5.25720e-06
 Reference value :  5.25899e-06
 Reference value :  5.26125e-06
 Reference value :  5.27468e-06
 Reference value :  5.32567e-06
 Reference value :  5.50000e-06
 Reference value :  5.50001e-06
 Reference value :  5.50003e-06
 Reference value :  5.50010e-06
 Reference value :  5.50011e-06
 Reference value :  5.50012e-06
 Reference value :  5.50016e-06
 Reference value :  5.50022e-06
 Reference value :  5.50035e-06
 Reference value :  5.50057e-06
 Reference value :  5.50090e-06
 Reference value :  5.50136e-06
 Reference value :  5.50183e-06
 Reference value :  5.50230e-06
 Reference value :  5.50281e-06
 Reference value :  5.50339e-06
 Reference value :  5.50395e-06
 Reference value :  5.50458e-06
 Reference value :  5.50594e-06
 Reference value :  5.50745e-06
 Reference value :  5.50833e-06
 Reference value :  5.50919e-06
 Reference value :  5.51023e-06
 Reference value :  5.51363e-06
 Reference value :  5.52259e-06
 Reference value :  5.54977e-06
 Reference value :  5.65242e-06
 Reference value :  5.75010e-06
 Reference value :  5.75011e-06
 Reference value :  5.75013e-06
 Reference value :  5.75020e-06
 Reference value :  5.75021e-06
 Reference value :  5.75026e-06
 Reference value :  5.75032e-06
 Reference value :  5.75039e-06
 Reference value :  5.75071e-06
 Reference value :  5.75096e-06
 Reference value :  5.75180e-06
 Reference value :  5.75290e-06
 Reference value :  5.75353e-06
 Reference value :  5.75414e-06
 Reference value :  5.75471e-06
 Reference value :  5.75531e-06
 Reference value :  5.75606e-06
 Reference value :  5.75855e-06
 Reference value :  5.76455e-06
 Reference value :  5.78725e-06
 Reference value :  5.87806e-06
 Reference value :  6.00001e-06
 Reference value :  6.00007e-06
 Reference value :  6.00011e-06
 Reference value :  6.00016e-06
 Reference value :  6.00022e-06
 Reference value :  6.00035e-06
 Reference value :  6.00057e-06
 Reference value :  6.00090e-06
 Reference value :  6.00136e-06
 Reference value :  6.00183e-06
 Reference value :  6.00230e-06
 Reference value :  6.00281e-06
 Reference value :  6.00394e-06
 Reference value :  6.00445e-06
 Reference value :  6.00492e-06
 Reference value :  6.00545e-06
 Reference value :  6.00617e-06
 Reference value :  6.00691e-06
 Reference value :  6.00840e-06
 Reference value :  6.00990e-06
 Reference value :  6.01119e-06
 Reference value :  6.01226e-06
 Reference value :  6.01435e-06
 Reference value :  6.01535e-06
 Reference value :  6.01639e-06
 Reference value :  6.01754e-06
 Reference value :  6.01919e-06
 Reference value :  6.02093e-06
 Reference value :  6.02420e-06
 Reference value :  6.03670e-06
 Reference value :  6.04663e-06
 Reference value :  6.08539e-06
 Reference value :  6.20661e-06
 Reference value :  6.25011e-06
 Reference value :  6.25013e-06
 Reference value :  6.25017e-06
 Reference value :  6.25020e-06
 Reference value :  6.25022e-06
 Reference value :  6.25026e-06
 Reference value :  6.25039e-06
 Reference value :  6.25053e-06
 Reference value :  6.25069e-06
 Reference value :  6.25095e-06
 Reference value :  6.25178e-06
 Reference value :  6.25223e-06
 Reference value :  6.25285e-06
 Reference value :  6.25349e-06
 Reference value :  6.25407e-06
 Reference value :  6.25467e-06
 Reference value :  6.25527e-06
 Reference value :  6.25622e-06
 Reference value :  6.25726e-06
 Reference value :  6.25905e-06
 Reference value :  6.26586e-06
 Reference value :  6.29182e-06
 Reference value :  6.39344e-06
 Reference value :  6.50001e-06
 Reference value :  6.50003e-06
 Reference value :  6.50010e-06
 Reference value :  6.50012e-06
 Reference value :  6.50022e-06
 Reference value :  6.50035e-06
 Reference value :  6.50090e-06
 Reference value :  6.50136e-06
 Reference value :  6.50183e-06
 Reference value :  6.50230e-06
 Reference value :  6.50281e-06
 Reference value :  6.50339e-06
 Reference value :  6.50458e-06
 Reference value :  6.50536e-06
 Reference value :  6.50594e-06
 Reference value :  6.50661e-06
 Reference value :  6.50745e-06
 Reference value :  6.50919e-06
 Reference value :  6.51023e-06
 Reference value :  6.51362e-06
 Reference value :  6.52255e-06
 Reference value :  6.54958e-06
 Reference value :  6.65164e-06
 Reference value :  6.75011e-06
 Reference value :  6.75017e-06
 Reference value :  6.75020e-06
 Reference value :  6.75022e-06
 Reference value :  6.75032e-06
 Reference value :  6.75053e-06
 Reference value :  6.75096e-06
 Reference value :  6.75140e-06
 Reference value :  6.75180e-06
 Reference value :  6.75227e-06
 Reference value :  6.75290e-06
 Reference value :  6.75353e-06
 Reference value :  6.75471e-06
 Reference value :  6.75606e-06
 Reference value :  6.75855e-06
 Reference value :  6.77212e-06
 Reference value :  6.87802e-06
 Reference value :  7.00000e-06
 Reference value :  7.00003e-06
 Reference value :  7.00010e-06
 Reference value :  7.00012e-06
 Reference value :  7.00022e-06
 Reference value :  7.00057e-06
 Reference value :  7.00136e-06
 Reference value :  7.00230e-06
 Reference value :  7.00281e-06
 Reference value :  7.00339e-06
 Reference value :  7.00445e-06
 Reference value :  7.00492e-06
 Reference value :  7.00545e-06
 Reference value :  7.00617e-06
 Reference value :  7.00840e-06
 Reference value :  7.01119e-06
 Reference value :  7.01226e-06
 Reference value :  7.01435e-06
 Reference value :  7.01535e-06
 Reference value :  7.01754e-06
 Reference value :  7.02094e-06
 Reference value :  7.03676e-06
 Reference value :  7.04441e-06
 Reference value :  7.05418e-06
 Reference value :  7.06137e-06
 Reference value :  7.07871e-06
 Reference value :  7.11420e-06
 Reference value :  7.15208e-06
 Reference value :  7.21547e-06
 Reference value :  7.25011e-06
 Reference value :  7.25017e-06
 Reference value :  7.25022e-06
 Reference value :  7.25039e-06
 Reference value :  7.25069e-06
 Reference value :  7.25095e-06
 Reference value :  7.25178e-06
 Reference value :  7.25285e-06
 Reference value :  7.25346e-06
 Reference value :  7.25468e-06
 Reference value :  7.25906e-06
 Reference value :  7.27418e-06
 Reference value :  7.39186e-06
 Reference value :  7.50001e-06
 Reference value :  7.50010e-06
 Reference value :  7.50012e-06
 Reference value :  7.50022e-06
 Reference value :  7.50035e-06
 Reference value :  7.50057e-06
 Reference value :  7.50090e-06
 Reference value :  7.50183e-06
 Reference value :  7.50282e-06
 Reference value :  7.50336e-06
 Reference value :  7.50455e-06
 Reference value :  7.50533e-06
 Reference value :  7.50589e-06
 Reference value :  7.50657e-06
 Reference value :  7.50741e-06
 Reference value :  7.50912e-06
 Reference value :  7.51013e-06
 Reference value :  7.51349e-06
 Reference value :  7.52279e-06
 Reference value :  7.55212e-06
 Reference value :  7.66367e-06
 Reference value :  7.75011e-06
 Reference value :  7.75017e-06
 Reference value :  7.75021e-06
 Reference value :  7.75026e-06
 Reference value :  7.75039e-06
 Reference value :  7.75071e-06
 Reference value :  7.75140e-06
 Reference value :  7.75227e-06
 Reference value :  7.75290e-06
 Reference value :  7.75413e-06
 Reference value :  7.75471e-06
 Reference value :  7.75607e-06
 Reference value :  7.75770e-06
 Reference value :  7.76002e-06
 Reference value :  7.76421e-06
 Reference value :  7.77660e-06
 Reference value :  7.82537e-06
 Reference value :  8.00001e-06
 Reference value :  8.00007e-06
 Reference value :  8.00011e-06
 Reference value :  8.00016e-06
 Reference value :  8.00035e-06
 Reference value :  8.00090e-06
 Reference value :  8.00136e-06
 Reference value :  8.00183e-06
 Reference value :  8.00281e-06
 Reference value :  8.00394e-06
 Reference value :  8.00445e-06
 Reference value :  8.00492e-06
 Reference value :  8.00621e-06
 Reference value :  8.00693e-06
 Reference value :  8.00778e-06
 Reference value :  8.00862e-06
 Reference value :  8.01033e-06
 Reference value :  8.01320e-06
 Reference value :  8.01403e-06
 Reference value :  8.01488e-06
 Reference value :  8.01790e-06
 Reference value :  8.02498e-06
 Reference value :  8.05126e-06
 Reference value :  8.07243e-06
 Reference value :  8.09569e-06
 Reference value :  8.13090e-06
 Reference value :  8.18502e-06
 Reference value :  8.23737e-06
 Reference value :  8.25011e-06
 Reference value :  8.25013e-06
 Reference value :  8.25020e-06
 Reference value :  8.25021e-06
 Reference value :  8.25026e-06
 Reference value :  8.25032e-06
 Reference value :  8.25058e-06
 Reference value :  8.25119e-06
 Reference value :  8.25160e-06
 Reference value :  8.25255e-06
 Reference value :  8.25326e-06
 Reference value :  8.25475e-06
 Reference value :  8.25669e-06
 Reference value :  8.26007e-06
 Reference value :  8.26764e-06
 Reference value :  8.28591e-06
 Reference value :  8.30372e-06
 Reference value :  8.36923e-06
 Reference value :  8.48675e-06
 Reference value :  8.50001e-06
 Reference value :  8.50007e-06
 Reference value :  8.50011e-06
 Reference value :  8.50022e-06
 Reference value :  8.50059e-06
 Reference value :  8.50091e-06
 Reference value :  8.50134e-06
 Reference value :  8.50227e-06
 Reference value :  8.50281e-06
 Reference value :  8.50333e-06
 Reference value :  8.50435e-06
 Reference value :  8.50488e-06
 Reference value :  8.50547e-06
 Reference value :  8.50734e-06
 Reference value :  8.51161e-06
 Reference value :  8.52143e-06
 Reference value :  8.52559e-06
 Reference value :  8.52856e-06
 Reference value :  8.53098e-06
 Reference value :  8.53299e-06
 Reference value :  8.53414e-06
 Reference value :  8.53532e-06
 Reference value :  8.53646e-06
 Reference value :  8.53962e-06
 Reference value :  8.54088e-06
 Reference value :  8.54379e-06
 Reference value :  8.54877e-06
 Reference value :  8.55237e-06
 Reference value :  8.56124e-06
 Reference value :  8.57135e-06
 Reference value :  8.57646e-06
 Reference value :  8.58008e-06
 Reference value :  8.58406e-06
 Reference value :  8.58853e-06
 Reference value :  8.59295e-06
 Reference value :  8.59914e-06
 Reference value :  8.61057e-06
 Reference value :  8.63015e-06
 Reference value :  8.68079e-06
 Reference value :  8.75010e-06
 Reference value :  8.75013e-06
 Reference value :  8.75017e-06
 Reference value :  8.75020e-06
 Reference value :  8.75026e-06
 Reference value :  8.75045e-06
 Reference value :  8.75082e-06
 Reference value :  8.75129e-06
 Reference value :  8.75215e-06
 Reference value :  8.75277e-06
 Reference value :  8.75325e-06
 Reference value :  8.75381e-06
 Reference value :  8.75434e-06
 Reference value :  8.75574e-06
 Reference value :  8.75818e-06
 Reference value :  8.76338e-06
 Reference value :  8.80373e-06
 Reference value :  8.94038e-06
No. of Data Rows : 1318
ngspice-44 done
