
Note: Compatibility modes selected: hs a


Circuit: ** sch_path: /home/samantha/cace/sar-adc-using-sky130-pdk/runs/run_2025-09-05_16-10-12/parameters/power/run_11/power_consumption.sch

option SCALE: Scale is set to 1e-06 for instance and model parameters
option SCALE: Scale is set to 1e-06 for instance and model parameters
option SCALE: Scale is set to 1e-06 for instance and model parameters
option SCALE: Scale is set to 1e-06 for instance and model parameters
Doing analysis at TEMP = 27.000000 and TNOM = 27.000000

Using KLU as Direct Linear Solver
 Reference value :  0.00000e+00
 Reference value :  2.00000e-12
 Reference value :  8.00000e-12
 Reference value :  3.20000e-11
 Reference value :  1.00000e-10
 Reference value :  1.19200e-10
 Reference value :  1.96000e-10
 Reference value :  4.68998e-10
 Reference value :  9.84652e-10
 Reference value :  1.39775e-09
 Reference value :  2.29914e-09
 Reference value :  2.70672e-09
 Reference value :  3.15132e-09
 Reference value :  3.64534e-09
 Reference value :  4.17185e-09
 Reference value :  4.72196e-09
 Reference value :  5.42073e-09
 Reference value :  7.01828e-09
 Reference value :  8.75832e-09
 Reference value :  9.72569e-09
 Reference value :  1.15560e-08
 Reference value :  1.32298e-08
 Reference value :  1.68240e-08
 Reference value :  1.89610e-08
 Reference value :  2.23569e-08
 Reference value :  2.47136e-08
 Reference value :  2.58261e-08
 Reference value :  3.05082e-08
 Reference value :  3.53110e-08
 Reference value :  4.44095e-08
 Reference value :  4.99589e-08
 Reference value :  7.49118e-08
 Reference value :  1.25559e-07
 Reference value :  2.50100e-07
 Reference value :  2.50130e-07
 Reference value :  2.50200e-07
 Reference value :  2.50220e-07
 Reference value :  2.50300e-07
 Reference value :  2.50518e-07
 Reference value :  2.50961e-07
 Reference value :  2.51806e-07
 Reference value :  2.52877e-07
 Reference value :  2.53555e-07
 Reference value :  2.54089e-07
 Reference value :  2.55259e-07
 Reference value :  2.55971e-07
 Reference value :  2.57862e-07
 Reference value :  2.61798e-07
 Reference value :  2.70579e-07
 Reference value :  2.97112e-07
 Reference value :  3.80349e-07
 Reference value :  5.00000e-07
 Reference value :  5.00030e-07
 Reference value :  5.00070e-07
 Reference value :  5.00108e-07
 Reference value :  5.00155e-07
 Reference value :  5.00344e-07
 Reference value :  5.00884e-07
 Reference value :  5.01634e-07
 Reference value :  5.02580e-07
 Reference value :  5.03099e-07
 Reference value :  5.04255e-07
 Reference value :  5.05035e-07
 Reference value :  5.07091e-07
 Reference value :  5.09716e-07
 Reference value :  5.10908e-07
 Reference value :  5.12379e-07
 Reference value :  5.15715e-07
 Reference value :  5.20772e-07
 Reference value :  5.30993e-07
 Reference value :  5.87753e-07
 Reference value :  7.15645e-07
 Reference value :  7.50110e-07
 Reference value :  7.50130e-07
 Reference value :  7.50208e-07
 Reference value :  7.50320e-07
 Reference value :  7.50629e-07
 Reference value :  7.51363e-07
 Reference value :  7.51772e-07
 Reference value :  7.52219e-07
 Reference value :  7.52797e-07
 Reference value :  7.53498e-07
 Reference value :  7.53997e-07
 Reference value :  7.55178e-07
 Reference value :  7.56680e-07
 Reference value :  7.62491e-07
 Reference value :  7.87794e-07
 Reference value :  8.66084e-07
 Reference value :  1.00000e-06
 Reference value :  1.00003e-06
 Reference value :  1.00010e-06
 Reference value :  1.00012e-06
 Reference value :  1.00022e-06
 Reference value :  1.00053e-06
 Reference value :  1.00121e-06
 Reference value :  1.00211e-06
 Reference value :  1.00308e-06
 Reference value :  1.00420e-06
 Reference value :  1.00527e-06
 Reference value :  1.00585e-06
 Reference value :  1.00756e-06
 Reference value :  1.01119e-06
 Reference value :  1.01273e-06
 Reference value :  1.01403e-06
 Reference value :  1.01653e-06
 Reference value :  1.01916e-06
 Reference value :  1.02291e-06
 Reference value :  1.02961e-06
 Reference value :  1.06153e-06
 Reference value :  1.07101e-06
 Reference value :  1.07882e-06
 Reference value :  1.08471e-06
 Reference value :  1.09827e-06
 Reference value :  1.10541e-06
 Reference value :  1.11247e-06
 Reference value :  1.13478e-06
 Reference value :  1.19620e-06
 Reference value :  1.25011e-06
 Reference value :  1.25013e-06
 Reference value :  1.25017e-06
 Reference value :  1.25021e-06
 Reference value :  1.25026e-06
 Reference value :  1.25032e-06
 Reference value :  1.25063e-06
 Reference value :  1.25136e-06
 Reference value :  1.25177e-06
 Reference value :  1.25222e-06
 Reference value :  1.25280e-06
 Reference value :  1.25347e-06
 Reference value :  1.25396e-06
 Reference value :  1.25507e-06
 Reference value :  1.25576e-06
 Reference value :  1.25648e-06
 Reference value :  1.25794e-06
 Reference value :  1.26245e-06
 Reference value :  1.27290e-06
 Reference value :  1.31436e-06
 Reference value :  1.47954e-06
 Reference value :  1.50001e-06
 Reference value :  1.50003e-06
 Reference value :  1.50007e-06
 Reference value :  1.50011e-06
 Reference value :  1.50012e-06
 Reference value :  1.50022e-06
 Reference value :  1.50034e-06
 Reference value :  1.50088e-06
 Reference value :  1.50121e-06
 Reference value :  1.50159e-06
 Reference value :  1.50205e-06
 Reference value :  1.50252e-06
 Reference value :  1.50301e-06
 Reference value :  1.50356e-06
 Reference value :  1.50490e-06
 Reference value :  1.50563e-06
 Reference value :  1.50624e-06
 Reference value :  1.50794e-06
 Reference value :  1.50985e-06
 Reference value :  1.51099e-06
 Reference value :  1.51479e-06
 Reference value :  1.54018e-06
 Reference value :  1.61560e-06
 Reference value :  1.75011e-06
 Reference value :  1.75020e-06
 Reference value :  1.75026e-06
 Reference value :  1.75063e-06
 Reference value :  1.75177e-06
 Reference value :  1.75280e-06
 Reference value :  1.75350e-06
 Reference value :  1.75399e-06
 Reference value :  1.75517e-06
 Reference value :  1.75669e-06
 Reference value :  1.75862e-06
 Reference value :  1.76164e-06
 Reference value :  1.76695e-06
 Reference value :  1.79353e-06
 Reference value :  1.90024e-06
 Reference value :  2.00000e-06
 Reference value :  2.00007e-06
 Reference value :  2.00012e-06
 Reference value :  2.00022e-06
 Reference value :  2.00034e-06
 Reference value :  2.00089e-06
 Reference value :  2.00163e-06
 Reference value :  2.00211e-06
 Reference value :  2.00309e-06
 Reference value :  2.00421e-06
 Reference value :  2.00523e-06
 Reference value :  2.00646e-06
 Reference value :  2.00820e-06
 Reference value :  2.01023e-06
 Reference value :  2.01121e-06
 Reference value :  2.01215e-06
 Reference value :  2.01384e-06
 Reference value :  2.01579e-06
 Reference value :  2.01781e-06
 Reference value :  2.01909e-06
 Reference value :  2.02497e-06
 Reference value :  2.05095e-06
 Reference value :  2.11184e-06
 Reference value :  2.22980e-06
 Reference value :  2.25011e-06
 Reference value :  2.25017e-06
 Reference value :  2.25021e-06
 Reference value :  2.25026e-06
 Reference value :  2.25045e-06
 Reference value :  2.25063e-06
 Reference value :  2.25087e-06
 Reference value :  2.25136e-06
 Reference value :  2.25177e-06
 Reference value :  2.25222e-06
 Reference value :  2.25351e-06
 Reference value :  2.25400e-06
 Reference value :  2.25513e-06
 Reference value :  2.25583e-06
 Reference value :  2.25656e-06
 Reference value :  2.25989e-06
 Reference value :  2.26631e-06
 Reference value :  2.27364e-06
 Reference value :  2.28375e-06
 Reference value :  2.31034e-06
 Reference value :  2.32864e-06
 Reference value :  2.39175e-06
 Reference value :  2.40983e-06
 Reference value :  2.44268e-06
 Reference value :  2.48143e-06
 Reference value :  2.50000e-06
 Reference value :  2.50001e-06
 Reference value :  2.50007e-06
 Reference value :  2.50010e-06
 Reference value :  2.50012e-06
 Reference value :  2.50016e-06
 Reference value :  2.50022e-06
 Reference value :  2.50053e-06
 Reference value :  2.50160e-06
 Reference value :  2.50252e-06
 Reference value :  2.50357e-06
 Reference value :  2.50491e-06
 Reference value :  2.50626e-06
 Reference value :  2.50797e-06
 Reference value :  2.50892e-06
 Reference value :  2.51106e-06
 Reference value :  2.51235e-06
 Reference value :  2.51877e-06
 Reference value :  2.53913e-06
 Reference value :  2.60871e-06
 Reference value :  2.75010e-06
 Reference value :  2.75011e-06
 Reference value :  2.75013e-06
 Reference value :  2.75017e-06
 Reference value :  2.75020e-06
 Reference value :  2.75022e-06
 Reference value :  2.75032e-06
 Reference value :  2.75063e-06
 Reference value :  2.75087e-06
 Reference value :  2.75177e-06
 Reference value :  2.75222e-06
 Reference value :  2.75280e-06
 Reference value :  2.75350e-06
 Reference value :  2.75400e-06
 Reference value :  2.75457e-06
 Reference value :  2.75593e-06
 Reference value :  2.75669e-06
 Reference value :  2.75753e-06
 Reference value :  2.75965e-06
 Reference value :  2.76355e-06
 Reference value :  2.77246e-06
 Reference value :  2.79441e-06
 Reference value :  2.85065e-06
 Reference value :  2.90743e-06
 Reference value :  3.00000e-06
 Reference value :  3.00003e-06
 Reference value :  3.00010e-06
 Reference value :  3.00012e-06
 Reference value :  3.00022e-06
 Reference value :  3.00053e-06
 Reference value :  3.00089e-06
 Reference value :  3.00164e-06
 Reference value :  3.00259e-06
 Reference value :  3.00309e-06
 Reference value :  3.00422e-06
 Reference value :  3.00523e-06
 Reference value :  3.00579e-06
 Reference value :  3.00647e-06
 Reference value :  3.00820e-06
 Reference value :  3.01024e-06
 Reference value :  3.01122e-06
 Reference value :  3.01217e-06
 Reference value :  3.01388e-06
 Reference value :  3.01468e-06
 Reference value :  3.01582e-06
 Reference value :  3.01677e-06
 Reference value :  3.01776e-06
 Reference value :  3.02032e-06
 Reference value :  3.02491e-06
 Reference value :  3.02920e-06
 Reference value :  3.03968e-06
 Reference value :  3.04450e-06
 Reference value :  3.04802e-06
 Reference value :  3.05518e-06
 Reference value :  3.06544e-06
 Reference value :  3.07253e-06
 Reference value :  3.09060e-06
 Reference value :  3.12191e-06
 Reference value :  3.18134e-06
 Reference value :  3.25010e-06
 Reference value :  3.25013e-06
 Reference value :  3.25020e-06
 Reference value :  3.25022e-06
 Reference value :  3.25032e-06
 Reference value :  3.25063e-06
 Reference value :  3.25136e-06
 Reference value :  3.25177e-06
 Reference value :  3.25280e-06
 Reference value :  3.25352e-06
 Reference value :  3.25402e-06
 Reference value :  3.25516e-06
 Reference value :  3.25585e-06
 Reference value :  3.25806e-06
 Reference value :  3.26273e-06
 Reference value :  3.27396e-06
 Reference value :  3.31611e-06
 Reference value :  3.47916e-06
 Reference value :  3.50001e-06
 Reference value :  3.50007e-06
 Reference value :  3.50011e-06
 Reference value :  3.50016e-06
 Reference value :  3.50034e-06
 Reference value :  3.50088e-06
 Reference value :  3.50121e-06
 Reference value :  3.50164e-06
 Reference value :  3.50211e-06
 Reference value :  3.50308e-06
 Reference value :  3.50421e-06
 Reference value :  3.50576e-06
 Reference value :  3.50643e-06
 Reference value :  3.50717e-06
 Reference value :  3.50804e-06
 Reference value :  3.50992e-06
 Reference value :  3.51108e-06
 Reference value :  3.51476e-06
 Reference value :  3.52410e-06
 Reference value :  3.55101e-06
 Reference value :  3.65167e-06
 Reference value :  3.75011e-06
 Reference value :  3.75017e-06
 Reference value :  3.75021e-06
 Reference value :  3.75026e-06
 Reference value :  3.75045e-06
 Reference value :  3.75063e-06
 Reference value :  3.75136e-06
 Reference value :  3.75177e-06
 Reference value :  3.75280e-06
 Reference value :  3.75350e-06
 Reference value :  3.75400e-06
 Reference value :  3.75458e-06
 Reference value :  3.75593e-06
 Reference value :  3.75804e-06
 Reference value :  3.76279e-06
 Reference value :  3.77483e-06
 Reference value :  3.81732e-06
 Reference value :  4.00000e-06
 Reference value :  4.00003e-06
 Reference value :  4.00010e-06
 Reference value :  4.00012e-06
 Reference value :  4.00016e-06
 Reference value :  4.00034e-06
 Reference value :  4.00053e-06
 Reference value :  4.00089e-06
 Reference value :  4.00164e-06
 Reference value :  4.00211e-06
 Reference value :  4.00308e-06
 Reference value :  4.00365e-06
 Reference value :  4.00420e-06
 Reference value :  4.00476e-06
 Reference value :  4.00528e-06
 Reference value :  4.00586e-06
 Reference value :  4.00675e-06
 Reference value :  4.00920e-06
 Reference value :  4.01119e-06
 Reference value :  4.01269e-06
 Reference value :  4.01399e-06
 Reference value :  4.01650e-06
 Reference value :  4.01908e-06
 Reference value :  4.02047e-06
 Reference value :  4.02260e-06
 Reference value :  4.02482e-06
 Reference value :  4.03538e-06
 Reference value :  4.04277e-06
 Reference value :  4.05728e-06
 Reference value :  4.06264e-06
 Reference value :  4.06790e-06
 Reference value :  4.07429e-06
 Reference value :  4.08107e-06
 Reference value :  4.09729e-06
 Reference value :  4.11445e-06
 Reference value :  4.12694e-06
 Reference value :  4.13429e-06
 Reference value :  4.14969e-06
 Reference value :  4.17410e-06
 Reference value :  4.19201e-06
 Reference value :  4.24550e-06
 Reference value :  4.25011e-06
 Reference value :  4.25013e-06
 Reference value :  4.25020e-06
 Reference value :  4.25022e-06
 Reference value :  4.25026e-06
 Reference value :  4.25042e-06
 Reference value :  4.25061e-06
 Reference value :  4.25082e-06
 Reference value :  4.25151e-06
 Reference value :  4.25240e-06
 Reference value :  4.25306e-06
 Reference value :  4.25375e-06
 Reference value :  4.25427e-06
 Reference value :  4.25487e-06
 Reference value :  4.25615e-06
 Reference value :  4.25839e-06
 Reference value :  4.26344e-06
 Reference value :  4.29364e-06
 Reference value :  4.38402e-06
 Reference value :  4.50001e-06
 Reference value :  4.50007e-06
 Reference value :  4.50011e-06
 Reference value :  4.50016e-06
 Reference value :  4.50034e-06
 Reference value :  4.50096e-06
 Reference value :  4.50185e-06
 Reference value :  4.50294e-06
 Reference value :  4.50349e-06
 Reference value :  4.50473e-06
 Reference value :  4.50606e-06
 Reference value :  4.50770e-06
 Reference value :  4.50858e-06
 Reference value :  4.51059e-06
 Reference value :  4.51194e-06
 Reference value :  4.51969e-06
 Reference value :  4.53680e-06
 Reference value :  4.59363e-06
 Reference value :  4.75010e-06
 Reference value :  4.75013e-06
 Reference value :  4.75020e-06
 Reference value :  4.75022e-06
 Reference value :  4.75032e-06
 Reference value :  4.75061e-06
 Reference value :  4.75111e-06
 Reference value :  4.75151e-06
 Reference value :  4.75240e-06
 Reference value :  4.75373e-06
 Reference value :  4.75425e-06
 Reference value :  4.75485e-06
 Reference value :  4.75616e-06
 Reference value :  4.75844e-06
 Reference value :  4.76351e-06
 Reference value :  4.77694e-06
 Reference value :  4.88085e-06
 Reference value :  5.00000e-06
 Reference value :  5.00003e-06
 Reference value :  5.00010e-06
 Reference value :  5.00012e-06
 Reference value :  5.00022e-06
 Reference value :  5.00057e-06
 Reference value :  5.00138e-06
 Reference value :  5.00185e-06
 Reference value :  5.00294e-06
 Reference value :  5.00348e-06
 Reference value :  5.00468e-06
 Reference value :  5.00519e-06
 Reference value :  5.00650e-06
 Reference value :  5.00878e-06
 Reference value :  5.01213e-06
 Reference value :  5.01373e-06
 Reference value :  5.01492e-06
 Reference value :  5.01727e-06
 Reference value :  5.01972e-06
 Reference value :  5.02153e-06
 Reference value :  5.02678e-06
 Reference value :  5.03742e-06
 Reference value :  5.04412e-06
 Reference value :  5.05723e-06
 Reference value :  5.06329e-06
 Reference value :  5.07053e-06
 Reference value :  5.08347e-06
 Reference value :  5.10506e-06
 Reference value :  5.17051e-06
 Reference value :  5.25010e-06
 Reference value :  5.25013e-06
 Reference value :  5.25020e-06
 Reference value :  5.25026e-06
 Reference value :  5.25042e-06
 Reference value :  5.25079e-06
 Reference value :  5.25152e-06
 Reference value :  5.25242e-06
 Reference value :  5.25309e-06
 Reference value :  5.25373e-06
 Reference value :  5.25427e-06
 Reference value :  5.25543e-06
 Reference value :  5.25623e-06
 Reference value :  5.25867e-06
 Reference value :  5.26389e-06
 Reference value :  5.27858e-06
 Reference value :  5.39814e-06
 Reference value :  5.50001e-06
 Reference value :  5.50007e-06
 Reference value :  5.50011e-06
 Reference value :  5.50016e-06
 Reference value :  5.50034e-06
 Reference value :  5.50096e-06
 Reference value :  5.50185e-06
 Reference value :  5.50294e-06
 Reference value :  5.50347e-06
 Reference value :  5.50468e-06
 Reference value :  5.50545e-06
 Reference value :  5.50603e-06
 Reference value :  5.50772e-06
 Reference value :  5.50966e-06
 Reference value :  5.51203e-06
 Reference value :  5.51614e-06
 Reference value :  5.52645e-06
 Reference value :  5.59883e-06
 Reference value :  5.75010e-06
 Reference value :  5.75013e-06
 Reference value :  5.75020e-06
 Reference value :  5.75026e-06
 Reference value :  5.75042e-06
 Reference value :  5.75082e-06
 Reference value :  5.75151e-06
 Reference value :  5.75240e-06
 Reference value :  5.75373e-06
 Reference value :  5.75425e-06
 Reference value :  5.75543e-06
 Reference value :  5.75616e-06
 Reference value :  5.75769e-06
 Reference value :  5.75865e-06
 Reference value :  5.76151e-06
 Reference value :  5.76655e-06
 Reference value :  5.77805e-06
 Reference value :  5.83191e-06
 Reference value :  5.93535e-06
 Reference value :  6.00001e-06
 Reference value :  6.00007e-06
 Reference value :  6.00011e-06
 Reference value :  6.00016e-06
 Reference value :  6.00034e-06
 Reference value :  6.00096e-06
 Reference value :  6.00185e-06
 Reference value :  6.00294e-06
 Reference value :  6.00348e-06
 Reference value :  6.00476e-06
 Reference value :  6.00596e-06
 Reference value :  6.00754e-06
 Reference value :  6.00856e-06
 Reference value :  6.01058e-06
 Reference value :  6.01160e-06
 Reference value :  6.01269e-06
 Reference value :  6.01353e-06
 Reference value :  6.01543e-06
 Reference value :  6.01639e-06
 Reference value :  6.01853e-06
 Reference value :  6.02165e-06
 Reference value :  6.03297e-06
 Reference value :  6.04697e-06
 Reference value :  6.05800e-06
 Reference value :  6.09416e-06
 Reference value :  6.23877e-06
 Reference value :  6.25011e-06
 Reference value :  6.25017e-06
 Reference value :  6.25021e-06
 Reference value :  6.25026e-06
 Reference value :  6.25042e-06
 Reference value :  6.25079e-06
 Reference value :  6.25152e-06
 Reference value :  6.25242e-06
 Reference value :  6.25377e-06
 Reference value :  6.25430e-06
 Reference value :  6.25547e-06
 Reference value :  6.25623e-06
 Reference value :  6.25854e-06
 Reference value :  6.26370e-06
 Reference value :  6.29618e-06
 Reference value :  6.39854e-06
 Reference value :  6.50001e-06
 Reference value :  6.50007e-06
 Reference value :  6.50011e-06
 Reference value :  6.50016e-06
 Reference value :  6.50034e-06
 Reference value :  6.50096e-06
 Reference value :  6.50185e-06
 Reference value :  6.50294e-06
 Reference value :  6.50348e-06
 Reference value :  6.50407e-06
 Reference value :  6.50473e-06
 Reference value :  6.50548e-06
 Reference value :  6.50606e-06
 Reference value :  6.50769e-06
 Reference value :  6.50961e-06
 Reference value :  6.51190e-06
 Reference value :  6.51949e-06
 Reference value :  6.55416e-06
 Reference value :  6.66219e-06
 Reference value :  6.75011e-06
 Reference value :  6.75017e-06
 Reference value :  6.75021e-06
 Reference value :  6.75026e-06
 Reference value :  6.75042e-06
 Reference value :  6.75082e-06
 Reference value :  6.75151e-06
 Reference value :  6.75240e-06
 Reference value :  6.75374e-06
 Reference value :  6.75426e-06
 Reference value :  6.75544e-06
 Reference value :  6.75693e-06
 Reference value :  6.76066e-06
 Reference value :  6.77704e-06
 Reference value :  6.82314e-06
 Reference value :  7.00000e-06
 Reference value :  7.00003e-06
 Reference value :  7.00010e-06
 Reference value :  7.00012e-06
 Reference value :  7.00022e-06
 Reference value :  7.00057e-06
 Reference value :  7.00138e-06
 Reference value :  7.00241e-06
 Reference value :  7.00348e-06
 Reference value :  7.00468e-06
 Reference value :  7.00519e-06
 Reference value :  7.00651e-06
 Reference value :  7.00879e-06
 Reference value :  7.01069e-06
 Reference value :  7.01216e-06
 Reference value :  7.01375e-06
 Reference value :  7.01501e-06
 Reference value :  7.01763e-06
 Reference value :  7.02030e-06
 Reference value :  7.02448e-06
 Reference value :  7.04257e-06
 Reference value :  7.13964e-06
 Reference value :  7.25011e-06
 Reference value :  7.25017e-06
 Reference value :  7.25021e-06
 Reference value :  7.25026e-06
 Reference value :  7.25042e-06
 Reference value :  7.25079e-06
 Reference value :  7.25152e-06
 Reference value :  7.25242e-06
 Reference value :  7.25309e-06
 Reference value :  7.25430e-06
 Reference value :  7.25547e-06
 Reference value :  7.25705e-06
 Reference value :  7.26085e-06
 Reference value :  7.27832e-06
 Reference value :  7.33017e-06
 Reference value :  7.50001e-06
 Reference value :  7.50007e-06
 Reference value :  7.50011e-06
 Reference value :  7.50016e-06
 Reference value :  7.50034e-06
 Reference value :  7.50096e-06
 Reference value :  7.50185e-06
 Reference value :  7.50294e-06
 Reference value :  7.50348e-06
 Reference value :  7.50472e-06
 Reference value :  7.50606e-06
 Reference value :  7.50769e-06
 Reference value :  7.50858e-06
 Reference value :  7.51058e-06
 Reference value :  7.51331e-06
 Reference value :  7.51952e-06
 Reference value :  7.55427e-06
 Reference value :  7.66266e-06
 Reference value :  7.75011e-06
 Reference value :  7.75017e-06
 Reference value :  7.75021e-06
 Reference value :  7.75026e-06
 Reference value :  7.75042e-06
 Reference value :  7.75082e-06
 Reference value :  7.75151e-06
 Reference value :  7.75240e-06
 Reference value :  7.75373e-06
 Reference value :  7.75425e-06
 Reference value :  7.75543e-06
 Reference value :  7.75616e-06
 Reference value :  7.75844e-06
 Reference value :  7.76800e-06
 Reference value :  7.82260e-06
 Reference value :  8.00000e-06
 Reference value :  8.00003e-06
 Reference value :  8.00010e-06
 Reference value :  8.00012e-06
 Reference value :  8.00022e-06
 Reference value :  8.00057e-06
 Reference value :  8.00138e-06
 Reference value :  8.00241e-06
 Reference value :  8.00349e-06
 Reference value :  8.00468e-06
 Reference value :  8.00519e-06
 Reference value :  8.00651e-06
 Reference value :  8.00728e-06
 Reference value :  8.00803e-06
 Reference value :  8.00986e-06
 Reference value :  8.01303e-06
 Reference value :  8.03881e-06
 Reference value :  8.12509e-06
 Reference value :  8.25010e-06
 Reference value :  8.25013e-06
 Reference value :  8.25020e-06
 Reference value :  8.25022e-06
 Reference value :  8.25032e-06
 Reference value :  8.25063e-06
 Reference value :  8.25122e-06
 Reference value :  8.25160e-06
 Reference value :  8.25250e-06
 Reference value :  8.25395e-06
 Reference value :  8.25580e-06
 Reference value :  8.25845e-06
 Reference value :  8.26321e-06
 Reference value :  8.27466e-06
 Reference value :  8.32045e-06
 Reference value :  8.50000e-06
No. of Data Rows : 1268
ngspice-44 done
