
Note: Compatibility modes selected: hs a


Circuit: ** sch_path: /home/ece/cace/sar-adc-using-sky130-pdk/runs/run_2025-09-13_01-23-44/parameters/dnl/run_1/sar_output_dnl.sch

option SCALE: Scale is set to 1e-06 for instance and model parameters
option SCALE: Scale is set to 1e-06 for instance and model parameters
option SCALE: Scale is set to 1e-06 for instance and model parameters
option SCALE: Scale is set to 1e-06 for instance and model parameters
Doing analysis at TEMP = 27.000000 and TNOM = 27.000000

Using KLU as Direct Linear Solver
Operating point simulation skipped by 'uic',
  now using transient initial conditions.
 Reference value :  1.00000e-12
 Reference value :  1.08079e-12
 Reference value :  2.16179e-12
 Reference value :  1.32269e-11
 Reference value :  9.27271e-11
 Reference value :  1.14390e-10
 Reference value :  4.02198e-10
 Reference value :  9.55414e-10
 Reference value :  1.86608e-09
 Reference value :  3.30592e-09
 Reference value :  5.28565e-09
 Reference value :  6.44391e-09
 Reference value :  8.66257e-09
 Reference value :  1.03006e-08
 Reference value :  1.17272e-08
 Reference value :  1.53329e-08
 Reference value :  2.68847e-08
 Reference value :  3.06146e-08
 Reference value :  4.24913e-08
 Reference value :  1.02921e-07
 Reference value :  2.50110e-07
 Reference value :  2.50200e-07
 Reference value :  2.50253e-07
 Reference value :  2.50546e-07
 Reference value :  2.51449e-07
 Reference value :  2.52407e-07
 Reference value :  2.53953e-07
 Reference value :  2.54551e-07
 Reference value :  2.56011e-07
 Reference value :  2.59264e-07
 Reference value :  2.67341e-07
 Reference value :  3.38665e-07
 Reference value :  5.00000e-07
 Reference value :  5.00070e-07
 Reference value :  5.00108e-07
 Reference value :  5.00220e-07
 Reference value :  5.00864e-07
 Reference value :  5.01299e-07
 Reference value :  5.02238e-07
 Reference value :  5.04003e-07
 Reference value :  5.05395e-07
 Reference value :  5.07577e-07
 Reference value :  5.09178e-07
 Reference value :  5.11978e-07
 Reference value :  5.13350e-07
 Reference value :  5.16416e-07
 Reference value :  5.23052e-07
 Reference value :  5.66250e-07
 Reference value :  7.50110e-07
 Reference value :  7.50200e-07
 Reference value :  7.50319e-07
 Reference value :  7.51066e-07
 Reference value :  7.52030e-07
 Reference value :  7.54048e-07
 Reference value :  7.55366e-07
 Reference value :  7.57895e-07
 Reference value :  7.71454e-07
 Reference value :  8.92928e-07
 Reference value :  1.00003e-06
 Reference value :  1.00011e-06
 Reference value :  1.00022e-06
 Reference value :  1.00052e-06
 Reference value :  1.00130e-06
 Reference value :  1.00224e-06
 Reference value :  1.00341e-06
 Reference value :  1.00458e-06
 Reference value :  1.00582e-06
 Reference value :  1.00642e-06
 Reference value :  1.00899e-06
 Reference value :  1.01255e-06
 Reference value :  1.01401e-06
 Reference value :  1.01538e-06
 Reference value :  1.01800e-06
 Reference value :  1.01912e-06
 Reference value :  1.02351e-06
 Reference value :  1.03431e-06
 Reference value :  1.08391e-06
 Reference value :  1.25010e-06
 Reference value :  1.25013e-06
 Reference value :  1.25020e-06
 Reference value :  1.25026e-06
 Reference value :  1.25070e-06
 Reference value :  1.25153e-06
 Reference value :  1.25203e-06
 Reference value :  1.25327e-06
 Reference value :  1.25467e-06
 Reference value :  1.25601e-06
 Reference value :  1.25781e-06
 Reference value :  1.26513e-06
 Reference value :  1.29954e-06
 Reference value :  1.50000e-06
 Reference value :  1.50007e-06
 Reference value :  1.50012e-06
 Reference value :  1.50035e-06
 Reference value :  1.50086e-06
 Reference value :  1.50130e-06
 Reference value :  1.50224e-06
 Reference value :  1.50400e-06
 Reference value :  1.50533e-06
 Reference value :  1.50730e-06
 Reference value :  1.50925e-06
 Reference value :  1.51019e-06
 Reference value :  1.51236e-06
 Reference value :  1.52123e-06
 Reference value :  1.55045e-06
 Reference value :  1.66734e-06
 Reference value :  1.75013e-06
 Reference value :  1.75020e-06
 Reference value :  1.75026e-06
 Reference value :  1.75070e-06
 Reference value :  1.75154e-06
 Reference value :  1.75257e-06
 Reference value :  1.75406e-06
 Reference value :  1.75540e-06
 Reference value :  1.75697e-06
 Reference value :  1.76193e-06
 Reference value :  1.78212e-06
 Reference value :  1.98497e-06
 Reference value :  2.00003e-06
 Reference value :  2.00011e-06
 Reference value :  2.00022e-06
 Reference value :  2.00086e-06
 Reference value :  2.00130e-06
 Reference value :  2.00224e-06
 Reference value :  2.00341e-06
 Reference value :  2.00458e-06
 Reference value :  2.00582e-06
 Reference value :  2.00711e-06
 Reference value :  2.01061e-06
 Reference value :  2.01401e-06
 Reference value :  2.01671e-06
 Reference value :  2.01909e-06
 Reference value :  2.02345e-06
 Reference value :  2.04282e-06
 Reference value :  2.22785e-06
 Reference value :  2.25017e-06
 Reference value :  2.25026e-06
 Reference value :  2.25070e-06
 Reference value :  2.25202e-06
 Reference value :  2.25327e-06
 Reference value :  2.25466e-06
 Reference value :  2.25688e-06
 Reference value :  2.26173e-06
 Reference value :  2.28153e-06
 Reference value :  2.38973e-06
 Reference value :  2.50003e-06
 Reference value :  2.50012e-06
 Reference value :  2.50035e-06
 Reference value :  2.50130e-06
 Reference value :  2.50277e-06
 Reference value :  2.50464e-06
 Reference value :  2.50730e-06
 Reference value :  2.50925e-06
 Reference value :  2.51123e-06
 Reference value :  2.51617e-06
 Reference value :  2.66720e-06
 Reference value :  2.75017e-06
 Reference value :  2.75026e-06
 Reference value :  2.75070e-06
 Reference value :  2.75153e-06
 Reference value :  2.75256e-06
 Reference value :  2.75406e-06
 Reference value :  2.75470e-06
 Reference value :  2.75610e-06
 Reference value :  2.75965e-06
 Reference value :  2.78197e-06
 Reference value :  2.98256e-06
 Reference value :  3.00003e-06
 Reference value :  3.00010e-06
 Reference value :  3.00016e-06
 Reference value :  3.00052e-06
 Reference value :  3.00130e-06
 Reference value :  3.00224e-06
 Reference value :  3.00403e-06
 Reference value :  3.00458e-06
 Reference value :  3.00582e-06
 Reference value :  3.00711e-06
 Reference value :  3.01062e-06
 Reference value :  3.01402e-06
 Reference value :  3.01537e-06
 Reference value :  3.01797e-06
 Reference value :  3.01909e-06
 Reference value :  3.02162e-06
 Reference value :  3.02535e-06
 Reference value :  3.03985e-06
 Reference value :  3.04662e-06
 Reference value :  3.05587e-06
 Reference value :  3.06700e-06
 Reference value :  3.08308e-06
 Reference value :  3.15081e-06
 Reference value :  3.21580e-06
 Reference value :  3.25013e-06
 Reference value :  3.25021e-06
 Reference value :  3.25045e-06
 Reference value :  3.25152e-06
 Reference value :  3.25254e-06
 Reference value :  3.25401e-06
 Reference value :  3.25533e-06
 Reference value :  3.25693e-06
 Reference value :  3.26188e-06
 Reference value :  3.28191e-06
 Reference value :  3.38868e-06
 Reference value :  3.45584e-06
 Reference value :  3.50001e-06
 Reference value :  3.50007e-06
 Reference value :  3.50012e-06
 Reference value :  3.50035e-06
 Reference value :  3.50086e-06
 Reference value :  3.50130e-06
 Reference value :  3.50221e-06
 Reference value :  3.50332e-06
 Reference value :  3.50485e-06
 Reference value :  3.50674e-06
 Reference value :  3.50753e-06
 Reference value :  3.50947e-06
 Reference value :  3.51157e-06
 Reference value :  3.51277e-06
 Reference value :  3.52082e-06
 Reference value :  3.56763e-06
 Reference value :  3.65985e-06
 Reference value :  3.68539e-06
 Reference value :  3.75010e-06
 Reference value :  3.75017e-06
 Reference value :  3.75026e-06
 Reference value :  3.75070e-06
 Reference value :  3.75202e-06
 Reference value :  3.75402e-06
 Reference value :  3.75532e-06
 Reference value :  3.75785e-06
 Reference value :  3.76532e-06
 Reference value :  3.83243e-06
 Reference value :  4.00001e-06
 Reference value :  4.00010e-06
 Reference value :  4.00022e-06
 Reference value :  4.00052e-06
 Reference value :  4.00130e-06
 Reference value :  4.00224e-06
 Reference value :  4.00404e-06
 Reference value :  4.00458e-06
 Reference value :  4.00582e-06
 Reference value :  4.00711e-06
 Reference value :  4.01256e-06
 Reference value :  4.01402e-06
 Reference value :  4.01537e-06
 Reference value :  4.01797e-06
 Reference value :  4.02030e-06
 Reference value :  4.02536e-06
 Reference value :  4.03138e-06
 Reference value :  4.03790e-06
 Reference value :  4.04273e-06
 Reference value :  4.04521e-06
 Reference value :  4.05562e-06
 Reference value :  4.07356e-06
 Reference value :  4.11593e-06
 Reference value :  4.23898e-06
 Reference value :  4.25013e-06
 Reference value :  4.25021e-06
 Reference value :  4.25032e-06
 Reference value :  4.25106e-06
 Reference value :  4.25203e-06
 Reference value :  4.25402e-06
 Reference value :  4.25538e-06
 Reference value :  4.25814e-06
 Reference value :  4.26605e-06
 Reference value :  4.30291e-06
 Reference value :  4.48603e-06
 Reference value :  4.50003e-06
 Reference value :  4.50011e-06
 Reference value :  4.50022e-06
 Reference value :  4.50052e-06
 Reference value :  4.50130e-06
 Reference value :  4.50221e-06
 Reference value :  4.50332e-06
 Reference value :  4.50485e-06
 Reference value :  4.50674e-06
 Reference value :  4.50753e-06
 Reference value :  4.50946e-06
 Reference value :  4.51157e-06
 Reference value :  4.51277e-06
 Reference value :  4.51680e-06
 Reference value :  4.52843e-06
 Reference value :  4.56726e-06
 Reference value :  4.71654e-06
 Reference value :  4.75011e-06
 Reference value :  4.75017e-06
 Reference value :  4.75021e-06
 Reference value :  4.75026e-06
 Reference value :  4.75045e-06
 Reference value :  4.75070e-06
 Reference value :  4.75152e-06
 Reference value :  4.75202e-06
 Reference value :  4.75325e-06
 Reference value :  4.75464e-06
 Reference value :  4.75604e-06
 Reference value :  4.75696e-06
 Reference value :  4.75884e-06
 Reference value :  4.76125e-06
 Reference value :  4.76548e-06
 Reference value :  4.77518e-06
 Reference value :  4.79874e-06
 Reference value :  4.85820e-06
 Reference value :  5.00001e-06
 Reference value :  5.00010e-06
 Reference value :  5.00016e-06
 Reference value :  5.00052e-06
 Reference value :  5.00130e-06
 Reference value :  5.00224e-06
 Reference value :  5.00403e-06
 Reference value :  5.00521e-06
 Reference value :  5.00644e-06
 Reference value :  5.01047e-06
 Reference value :  5.01146e-06
 Reference value :  5.01378e-06
 Reference value :  5.01618e-06
 Reference value :  5.01848e-06
 Reference value :  5.02256e-06
 Reference value :  5.03109e-06
 Reference value :  5.04500e-06
 Reference value :  5.05206e-06
 Reference value :  5.06396e-06
 Reference value :  5.09470e-06
 Reference value :  5.10107e-06
 Reference value :  5.11672e-06
 Reference value :  5.13856e-06
 Reference value :  5.17979e-06
 Reference value :  5.25010e-06
 Reference value :  5.25017e-06
 Reference value :  5.25022e-06
 Reference value :  5.25032e-06
 Reference value :  5.25070e-06
 Reference value :  5.25152e-06
 Reference value :  5.25202e-06
 Reference value :  5.25326e-06
 Reference value :  5.25464e-06
 Reference value :  5.25599e-06
 Reference value :  5.25788e-06
 Reference value :  5.27119e-06
 Reference value :  5.38735e-06
 Reference value :  5.50001e-06
 Reference value :  5.50011e-06
 Reference value :  5.50022e-06
 Reference value :  5.50086e-06
 Reference value :  5.50177e-06
 Reference value :  5.50270e-06
 Reference value :  5.50405e-06
 Reference value :  5.50561e-06
 Reference value :  5.50754e-06
 Reference value :  5.50947e-06
 Reference value :  5.51158e-06
 Reference value :  5.51278e-06
 Reference value :  5.51681e-06
 Reference value :  5.52837e-06
 Reference value :  5.61581e-06
 Reference value :  5.75010e-06
 Reference value :  5.75013e-06
 Reference value :  5.75021e-06
 Reference value :  5.75032e-06
 Reference value :  5.75070e-06
 Reference value :  5.75152e-06
 Reference value :  5.75254e-06
 Reference value :  5.75403e-06
 Reference value :  5.75532e-06
 Reference value :  5.75694e-06
 Reference value :  5.75882e-06
 Reference value :  5.76122e-06
 Reference value :  5.76901e-06
 Reference value :  5.79849e-06
 Reference value :  5.91602e-06
 Reference value :  6.00003e-06
 Reference value :  6.00011e-06
 Reference value :  6.00022e-06
 Reference value :  6.00086e-06
 Reference value :  6.00176e-06
 Reference value :  6.00224e-06
 Reference value :  6.00403e-06
 Reference value :  6.00457e-06
 Reference value :  6.00583e-06
 Reference value :  6.00712e-06
 Reference value :  6.01047e-06
 Reference value :  6.01149e-06
 Reference value :  6.01380e-06
 Reference value :  6.01628e-06
 Reference value :  6.01860e-06
 Reference value :  6.02276e-06
 Reference value :  6.03079e-06
 Reference value :  6.03846e-06
 Reference value :  6.05466e-06
 Reference value :  6.07654e-06
 Reference value :  6.11128e-06
 Reference value :  6.13898e-06
 Reference value :  6.16944e-06
 Reference value :  6.25010e-06
 Reference value :  6.25017e-06
 Reference value :  6.25022e-06
 Reference value :  6.25032e-06
 Reference value :  6.25070e-06
 Reference value :  6.25153e-06
 Reference value :  6.25256e-06
 Reference value :  6.25404e-06
 Reference value :  6.25532e-06
 Reference value :  6.25779e-06
 Reference value :  6.27066e-06
 Reference value :  6.50000e-06
 Reference value :  6.50010e-06
 Reference value :  6.50035e-06
 Reference value :  6.50130e-06
 Reference value :  6.50221e-06
 Reference value :  6.50485e-06
 Reference value :  6.50674e-06
 Reference value :  6.50754e-06
 Reference value :  6.51056e-06
 Reference value :  6.51412e-06
 Reference value :  6.61523e-06
 Reference value :  6.75017e-06
 Reference value :  6.75026e-06
 Reference value :  6.75105e-06
 Reference value :  6.75254e-06
 Reference value :  6.75464e-06
 Reference value :  6.75694e-06
 Reference value :  6.76122e-06
 Reference value :  6.77509e-06
 Reference value :  6.91634e-06
 Reference value :  7.00010e-06
 Reference value :  7.00035e-06
 Reference value :  7.00130e-06
 Reference value :  7.00224e-06
 Reference value :  7.00403e-06
 Reference value :  7.00521e-06
 Reference value :  7.00644e-06
 Reference value :  7.00902e-06
 Reference value :  7.01149e-06
 Reference value :  7.01380e-06
 Reference value :  7.01755e-06
 Reference value :  7.01988e-06
 Reference value :  7.02483e-06
 Reference value :  7.03531e-06
 Reference value :  7.09473e-06
 Reference value :  7.14449e-06
 Reference value :  7.24630e-06
 Reference value :  7.25013e-06
 Reference value :  7.25021e-06
 Reference value :  7.25032e-06
 Reference value :  7.25105e-06
 Reference value :  7.25203e-06
 Reference value :  7.25404e-06
 Reference value :  7.25533e-06
 Reference value :  7.25780e-06
 Reference value :  7.28125e-06
 Reference value :  7.49478e-06
 Reference value :  7.50007e-06
 Reference value :  7.50012e-06
 Reference value :  7.50035e-06
 Reference value :  7.50086e-06
 Reference value :  7.50130e-06
 Reference value :  7.50221e-06
 Reference value :  7.50405e-06
 Reference value :  7.50561e-06
 Reference value :  7.50754e-06
 Reference value :  7.50947e-06
 Reference value :  7.51158e-06
 Reference value :  7.51412e-06
 Reference value :  7.54196e-06
 Reference value :  7.75010e-06
 Reference value :  7.75017e-06
 Reference value :  7.75026e-06
 Reference value :  7.75105e-06
 Reference value :  7.75201e-06
 Reference value :  7.75325e-06
 Reference value :  7.75464e-06
 Reference value :  7.75693e-06
 Reference value :  7.75994e-06
 Reference value :  7.77506e-06
 Reference value :  7.91629e-06
 Reference value :  8.00007e-06
 Reference value :  8.00012e-06
 Reference value :  8.00035e-06
 Reference value :  8.00130e-06
 Reference value :  8.00224e-06
 Reference value :  8.00403e-06
 Reference value :  8.00457e-06
 Reference value :  8.00583e-06
 Reference value :  8.00712e-06
 Reference value :  8.00902e-06
 Reference value :  8.01082e-06
 Reference value :  8.01279e-06
 Reference value :  8.01591e-06
 Reference value :  8.02303e-06
 Reference value :  8.02930e-06
 Reference value :  8.03866e-06
 Reference value :  8.09265e-06
 Reference value :  8.25011e-06
 Reference value :  8.25020e-06
 Reference value :  8.25032e-06
 Reference value :  8.25070e-06
 Reference value :  8.25153e-06
 Reference value :  8.25256e-06
 Reference value :  8.25517e-06
 Reference value :  8.25861e-06
 Reference value :  8.28078e-06
 Reference value :  8.43676e-06
 Reference value :  8.50000e-06
 Reference value :  8.50000e-06
 Reference value :  8.50004e-06
 Reference value :  8.50011e-06
 Reference value :  8.50018e-06
 Reference value :  8.50078e-06
 Reference value :  8.50190e-06
 Reference value :  8.50245e-06
 Reference value :  8.50369e-06
 Reference value :  8.50512e-06
 Reference value :  8.50570e-06
 Reference value :  8.50706e-06
 Reference value :  8.50944e-06
 Reference value :  8.51506e-06
 Reference value :  8.52876e-06
 Reference value :  8.53371e-06
 Reference value :  8.53739e-06
 Reference value :  8.54062e-06
 Reference value :  8.54572e-06
 Reference value :  8.55083e-06
 Reference value :  8.56224e-06
 Reference value :  8.58808e-06
 Reference value :  8.64615e-06
 Reference value :  8.75011e-06
 Reference value :  8.75020e-06
 Reference value :  8.75026e-06
 Reference value :  8.75070e-06
 Reference value :  8.75152e-06
 Reference value :  8.75254e-06
 Reference value :  8.75404e-06
 Reference value :  8.75464e-06
 Reference value :  8.75680e-06
 Reference value :  8.77009e-06
 Reference value :  8.88522e-06
 Reference value :  9.00003e-06
 Reference value :  9.00011e-06
 Reference value :  9.00022e-06
 Reference value :  9.00052e-06
 Reference value :  9.00130e-06
 Reference value :  9.00224e-06
 Reference value :  9.00339e-06
 Reference value :  9.00461e-06
 Reference value :  9.00625e-06
 Reference value :  9.00877e-06
 Reference value :  9.01166e-06
 Reference value :  9.01311e-06
 Reference value :  9.01642e-06
 Reference value :  9.02037e-06
 Reference value :  9.03299e-06
 Reference value :  9.17330e-06
 Reference value :  9.25013e-06
 Reference value :  9.25020e-06
 Reference value :  9.25022e-06
 Reference value :  9.25045e-06
 Reference value :  9.25105e-06
 Reference value :  9.25202e-06
 Reference value :  9.25326e-06
 Reference value :  9.25464e-06
 Reference value :  9.25604e-06
 Reference value :  9.25964e-06
 Reference value :  9.27126e-06
 Reference value :  9.33158e-06
 Reference value :  9.50000e-06
 Reference value :  9.50007e-06
 Reference value :  9.50011e-06
 Reference value :  9.50022e-06
 Reference value :  9.50086e-06
 Reference value :  9.50130e-06
 Reference value :  9.50224e-06
 Reference value :  9.50341e-06
 Reference value :  9.50458e-06
 Reference value :  9.50582e-06
 Reference value :  9.50642e-06
 Reference value :  9.50799e-06
 Reference value :  9.51255e-06
 Reference value :  9.51401e-06
 Reference value :  9.51537e-06
 Reference value :  9.51798e-06
 Reference value :  9.52031e-06
 Reference value :  9.52344e-06
 Reference value :  9.53405e-06
 Reference value :  9.62951e-06
 Reference value :  9.75011e-06
 Reference value :  9.75020e-06
 Reference value :  9.75026e-06
 Reference value :  9.75070e-06
 Reference value :  9.75152e-06
 Reference value :  9.75201e-06
 Reference value :  9.75405e-06
 Reference value :  9.75465e-06
 Reference value :  9.75600e-06
 Reference value :  9.75777e-06
 Reference value :  9.76505e-06
 Reference value :  9.88627e-06
 Reference value :  1.00000e-05
 Reference value :  1.00001e-05
 Reference value :  1.00003e-05
 Reference value :  1.00009e-05
 Reference value :  1.00018e-05
 Reference value :  1.00028e-05
 Reference value :  1.00046e-05
 Reference value :  1.00073e-05
 Reference value :  1.00093e-05
 Reference value :  1.00112e-05
 Reference value :  1.00162e-05
 Reference value :  1.00893e-05
 Reference value :  1.02501e-05
 Reference value :  1.02502e-05
 Reference value :  1.02504e-05
 Reference value :  1.02511e-05
 Reference value :  1.02520e-05
 Reference value :  1.02541e-05
 Reference value :  1.02547e-05
 Reference value :  1.02561e-05
 Reference value :  1.02579e-05
 Reference value :  1.02620e-05
 Reference value :  1.02715e-05
 Reference value :  1.02998e-05
 Reference value :  1.03847e-05
 Reference value :  1.05000e-05
 Reference value :  1.05000e-05
 Reference value :  1.05001e-05
 Reference value :  1.05001e-05
 Reference value :  1.05002e-05
 Reference value :  1.05005e-05
 Reference value :  1.05013e-05
 Reference value :  1.05022e-05
 Reference value :  1.05034e-05
 Reference value :  1.05046e-05
 Reference value :  1.05058e-05
 Reference value :  1.05080e-05
 Reference value :  1.05126e-05
 Reference value :  1.05154e-05
 Reference value :  1.05180e-05
 Reference value :  1.05191e-05
 Reference value :  1.05234e-05
 Reference value :  1.05424e-05
 Reference value :  1.07185e-05
 Reference value :  1.07501e-05
 Reference value :  1.07502e-05
 Reference value :  1.07504e-05
 Reference value :  1.07515e-05
 Reference value :  1.07525e-05
 Reference value :  1.07547e-05
 Reference value :  1.07569e-05
 Reference value :  1.07617e-05
 Reference value :  1.07985e-05
 Reference value :  1.10000e-05
 Reference value :  1.10001e-05
 Reference value :  1.10001e-05
 Reference value :  1.10003e-05
 Reference value :  1.10013e-05
 Reference value :  1.10022e-05
 Reference value :  1.10034e-05
 Reference value :  1.10046e-05
 Reference value :  1.10063e-05
 Reference value :  1.10073e-05
 Reference value :  1.10083e-05
 Reference value :  1.10102e-05
 Reference value :  1.10124e-05
 Reference value :  1.10212e-05
 Reference value :  1.10893e-05
 Reference value :  1.12501e-05
 Reference value :  1.12502e-05
 Reference value :  1.12502e-05
 Reference value :  1.12503e-05
 Reference value :  1.12507e-05
 Reference value :  1.12515e-05
 Reference value :  1.12520e-05
 Reference value :  1.12533e-05
 Reference value :  1.12547e-05
 Reference value :  1.12561e-05
 Reference value :  1.12579e-05
 Reference value :  1.12620e-05
 Reference value :  1.12715e-05
 Reference value :  1.13310e-05
 Reference value :  1.15000e-05
 Reference value :  1.15000e-05
 Reference value :  1.15001e-05
 Reference value :  1.15002e-05
 Reference value :  1.15003e-05
 Reference value :  1.15009e-05
 Reference value :  1.15013e-05
 Reference value :  1.15022e-05
 Reference value :  1.15034e-05
 Reference value :  1.15046e-05
 Reference value :  1.15058e-05
 Reference value :  1.15064e-05
 Reference value :  1.15080e-05
 Reference value :  1.15106e-05
 Reference value :  1.15126e-05
 Reference value :  1.15140e-05
 Reference value :  1.15154e-05
 Reference value :  1.15180e-05
 Reference value :  1.15191e-05
 Reference value :  1.15216e-05
 Reference value :  1.15285e-05
 Reference value :  1.15465e-05
 Reference value :  1.15558e-05
 Reference value :  1.15668e-05
 Reference value :  1.15845e-05
 Reference value :  1.16191e-05
 Reference value :  1.16787e-05
 Reference value :  1.17501e-05
 Reference value :  1.17501e-05
 Reference value :  1.17502e-05
 Reference value :  1.17504e-05
 Reference value :  1.17515e-05
 Reference value :  1.17526e-05
 Reference value :  1.17540e-05
 Reference value :  1.17554e-05
 Reference value :  1.17581e-05
 Reference value :  1.17728e-05
 Reference value :  1.18339e-05
 Reference value :  1.19396e-05
 Reference value :  1.20000e-05
 Reference value :  1.20001e-05
 Reference value :  1.20001e-05
 Reference value :  1.20003e-05
 Reference value :  1.20013e-05
 Reference value :  1.20022e-05
 Reference value :  1.20033e-05
 Reference value :  1.20049e-05
 Reference value :  1.20068e-05
 Reference value :  1.20075e-05
 Reference value :  1.20095e-05
 Reference value :  1.20128e-05
 Reference value :  1.20208e-05
 Reference value :  1.20282e-05
 Reference value :  1.20337e-05
 Reference value :  1.20480e-05
 Reference value :  1.20690e-05
 Reference value :  1.20849e-05
 Reference value :  1.21226e-05
 Reference value :  1.22501e-05
 Reference value :  1.22502e-05
 Reference value :  1.22502e-05
 Reference value :  1.22504e-05
 Reference value :  1.22511e-05
 Reference value :  1.22520e-05
 Reference value :  1.22533e-05
 Reference value :  1.22546e-05
 Reference value :  1.22561e-05
 Reference value :  1.22579e-05
 Reference value :  1.22650e-05
 Reference value :  1.22990e-05
 Reference value :  1.24981e-05
 Reference value :  1.25000e-05
 Reference value :  1.25001e-05
 Reference value :  1.25002e-05
 Reference value :  1.25009e-05
 Reference value :  1.25018e-05
 Reference value :  1.25022e-05
 Reference value :  1.25034e-05
 Reference value :  1.25046e-05
 Reference value :  1.25058e-05
 Reference value :  1.25064e-05
 Reference value :  1.25080e-05
 Reference value :  1.25106e-05
 Reference value :  1.25140e-05
 Reference value :  1.25167e-05
 Reference value :  1.25191e-05
 Reference value :  1.25216e-05
 Reference value :  1.25253e-05
 Reference value :  1.25320e-05
 Reference value :  1.25386e-05
 Reference value :  1.25411e-05
 Reference value :  1.25477e-05
 Reference value :  1.25569e-05
 Reference value :  1.25687e-05
 Reference value :  1.26039e-05
 Reference value :  1.26630e-05
 Reference value :  1.27501e-05
 Reference value :  1.27502e-05
 Reference value :  1.27503e-05
 Reference value :  1.27511e-05
 Reference value :  1.27520e-05
 Reference value :  1.27540e-05
 Reference value :  1.27560e-05
 Reference value :  1.27599e-05
 Reference value :  1.28021e-05
 Reference value :  1.30000e-05
 Reference value :  1.30001e-05
 Reference value :  1.30005e-05
 Reference value :  1.30018e-05
 Reference value :  1.30027e-05
 Reference value :  1.30049e-05
 Reference value :  1.30075e-05
 Reference value :  1.30106e-05
 Reference value :  1.30141e-05
 Reference value :  1.30420e-05
 Reference value :  1.32501e-05
 Reference value :  1.32502e-05
 Reference value :  1.32502e-05
 Reference value :  1.32507e-05
 Reference value :  1.32520e-05
 Reference value :  1.32540e-05
 Reference value :  1.32560e-05
 Reference value :  1.32588e-05
 Reference value :  1.32690e-05
 Reference value :  1.33216e-05
 Reference value :  1.35000e-05
 Reference value :  1.35001e-05
 Reference value :  1.35002e-05
 Reference value :  1.35009e-05
 Reference value :  1.35018e-05
 Reference value :  1.35028e-05
 Reference value :  1.35046e-05
 Reference value :  1.35058e-05
 Reference value :  1.35064e-05
 Reference value :  1.35080e-05
 Reference value :  1.35105e-05
 Reference value :  1.35115e-05
 Reference value :  1.35138e-05
 Reference value :  1.35162e-05
 Reference value :  1.35185e-05
 Reference value :  1.35211e-05
 Reference value :  1.35275e-05
 Reference value :  1.35344e-05
 Reference value :  1.35440e-05
 Reference value :  1.35508e-05
 Reference value :  1.35627e-05
 Reference value :  1.35869e-05
 Reference value :  1.36123e-05
 Reference value :  1.36193e-05
 Reference value :  1.36273e-05
 Reference value :  1.36439e-05
 Reference value :  1.36983e-05
 Reference value :  1.37501e-05
 Reference value :  1.37502e-05
 Reference value :  1.37502e-05
 Reference value :  1.37503e-05
 Reference value :  1.37507e-05
 Reference value :  1.37515e-05
 Reference value :  1.37520e-05
 Reference value :  1.37533e-05
 Reference value :  1.37547e-05
 Reference value :  1.37572e-05
 Reference value :  1.37663e-05
 Reference value :  1.38355e-05
 Reference value :  1.40000e-05
 Reference value :  1.40001e-05
 Reference value :  1.40001e-05
 Reference value :  1.40002e-05
 Reference value :  1.40003e-05
 Reference value :  1.40009e-05
 Reference value :  1.40013e-05
 Reference value :  1.40022e-05
 Reference value :  1.40033e-05
 Reference value :  1.40041e-05
 Reference value :  1.40056e-05
 Reference value :  1.40075e-05
 Reference value :  1.40095e-05
 Reference value :  1.40116e-05
 Reference value :  1.40128e-05
 Reference value :  1.40168e-05
 Reference value :  1.40283e-05
 Reference value :  1.40661e-05
 Reference value :  1.42111e-05
 Reference value :  1.42501e-05
 Reference value :  1.42502e-05
 Reference value :  1.42502e-05
 Reference value :  1.42507e-05
 Reference value :  1.42520e-05
 Reference value :  1.42533e-05
 Reference value :  1.42546e-05
 Reference value :  1.42560e-05
 Reference value :  1.42578e-05
 Reference value :  1.42599e-05
 Reference value :  1.42654e-05
 Reference value :  1.42837e-05
 Reference value :  1.43575e-05
 Reference value :  1.45000e-05
 Reference value :  1.45001e-05
 Reference value :  1.45001e-05
 Reference value :  1.45003e-05
 Reference value :  1.45013e-05
 Reference value :  1.45022e-05
 Reference value :  1.45040e-05
 Reference value :  1.45046e-05
 Reference value :  1.45058e-05
 Reference value :  1.45071e-05
 Reference value :  1.45105e-05
 Reference value :  1.45126e-05
 Reference value :  1.45151e-05
 Reference value :  1.45187e-05
 Reference value :  1.45228e-05
 Reference value :  1.45273e-05
 Reference value :  1.45340e-05
 Reference value :  1.45376e-05
 Reference value :  1.45459e-05
 Reference value :  1.45529e-05
 Reference value :  1.45575e-05
 Reference value :  1.45819e-05
 Reference value :  1.46070e-05
 Reference value :  1.46462e-05
 Reference value :  1.47212e-05
 Reference value :  1.47502e-05
 Reference value :  1.47502e-05
 Reference value :  1.47504e-05
 Reference value :  1.47515e-05
 Reference value :  1.47526e-05
 Reference value :  1.47547e-05
 Reference value :  1.47561e-05
 Reference value :  1.47570e-05
 Reference value :  1.47597e-05
 Reference value :  1.47825e-05
 Reference value :  1.49794e-05
 Reference value :  1.50000e-05
 Reference value :  1.50001e-05
 Reference value :  1.50002e-05
 Reference value :  1.50009e-05
 Reference value :  1.50013e-05
 Reference value :  1.50022e-05
 Reference value :  1.50033e-05
 Reference value :  1.50049e-05
 Reference value :  1.50075e-05
 Reference value :  1.50095e-05
 Reference value :  1.50128e-05
 Reference value :  1.50208e-05
 Reference value :  1.50419e-05
 Reference value :  1.52111e-05
 Reference value :  1.52501e-05
 Reference value :  1.52502e-05
 Reference value :  1.52503e-05
 Reference value :  1.52511e-05
 Reference value :  1.52520e-05
 Reference value :  1.52540e-05
 Reference value :  1.52553e-05
 Reference value :  1.52569e-05
 Reference value :  1.52599e-05
 Reference value :  1.52654e-05
 Reference value :  1.52985e-05
 Reference value :  1.54161e-05
 Reference value :  1.55013e-05
 Reference value :  1.55053e-05
 Reference value :  1.55077e-05
 Reference value :  1.55101e-05
 Reference value :  1.55126e-05
 Reference value :  1.55137e-05
 Reference value :  1.55158e-05
 Reference value :  1.55177e-05
 Reference value :  1.55209e-05
 Reference value :  1.55280e-05
 Reference value :  1.55594e-05
 Reference value :  1.56655e-05
 Reference value :  1.57501e-05
 Reference value :  1.57502e-05
 Reference value :  1.57503e-05
 Reference value :  1.57511e-05
 Reference value :  1.57526e-05
 Reference value :  1.57546e-05
 Reference value :  1.57568e-05
 Reference value :  1.57704e-05
 Reference value :  1.60000e-05
 Reference value :  1.60001e-05
 Reference value :  1.60002e-05
 Reference value :  1.60009e-05
 Reference value :  1.60022e-05
 Reference value :  1.60041e-05
 Reference value :  1.60067e-05
 Reference value :  1.60084e-05
 Reference value :  1.60106e-05
 Reference value :  1.60141e-05
 Reference value :  1.60420e-05
 Reference value :  1.62501e-05
 Reference value :  1.62502e-05
 Reference value :  1.62503e-05
 Reference value :  1.62507e-05
 Reference value :  1.62520e-05
 Reference value :  1.62540e-05
 Reference value :  1.62553e-05
 Reference value :  1.62570e-05
 Reference value :  1.62588e-05
 Reference value :  1.62613e-05
 Reference value :  1.62691e-05
 Reference value :  1.62990e-05
 Reference value :  1.64184e-05
 Reference value :  1.65000e-05
 Reference value :  1.65001e-05
 Reference value :  1.65002e-05
 Reference value :  1.65005e-05
 Reference value :  1.65013e-05
 Reference value :  1.65022e-05
 Reference value :  1.65034e-05
 Reference value :  1.65046e-05
 Reference value :  1.65058e-05
 Reference value :  1.65064e-05
 Reference value :  1.65090e-05
 Reference value :  1.65108e-05
 Reference value :  1.65128e-05
 Reference value :  1.65157e-05
 Reference value :  1.65193e-05
 Reference value :  1.65216e-05
 Reference value :  1.65234e-05
 Reference value :  1.65273e-05
 Reference value :  1.65355e-05
 Reference value :  1.65691e-05
 Reference value :  1.67267e-05
 Reference value :  1.67501e-05
 Reference value :  1.67502e-05
 Reference value :  1.67503e-05
 Reference value :  1.67511e-05
 Reference value :  1.67520e-05
 Reference value :  1.67533e-05
 Reference value :  1.67561e-05
 Reference value :  1.67603e-05
 Reference value :  1.67808e-05
 Reference value :  1.69367e-05
 Reference value :  1.70000e-05
 Reference value :  1.70000e-05
 Reference value :  1.70000e-05
 Reference value :  1.70001e-05
 Reference value :  1.70001e-05
 Reference value :  1.70002e-05
 Reference value :  1.70008e-05
 Reference value :  1.70024e-05
 Reference value :  1.70037e-05
 Reference value :  1.70051e-05
 Reference value :  1.70063e-05
 Reference value :  1.70079e-05
 Reference value :  1.70221e-05
 Reference value :  1.70288e-05
 Reference value :  1.70337e-05
 Reference value :  1.70374e-05
 Reference value :  1.70406e-05
 Reference value :  1.70457e-05
 Reference value :  1.70508e-05
 Reference value :  1.70622e-05
 Reference value :  1.70882e-05
 Reference value :  1.71461e-05
 Reference value :  1.72501e-05
 Reference value :  1.72502e-05
 Reference value :  1.72502e-05
 Reference value :  1.72504e-05
 Reference value :  1.72515e-05
 Reference value :  1.72525e-05
 Reference value :  1.72540e-05
 Reference value :  1.72553e-05
 Reference value :  1.72568e-05
 Reference value :  1.72616e-05
 Reference value :  1.73296e-05
 Reference value :  1.75000e-05
 Reference value :  1.75001e-05
 Reference value :  1.75003e-05
 Reference value :  1.75013e-05
 Reference value :  1.75022e-05
 Reference value :  1.75040e-05
 Reference value :  1.75053e-05
 Reference value :  1.75088e-05
 Reference value :  1.75131e-05
 Reference value :  1.75164e-05
 Reference value :  1.75204e-05
 Reference value :  1.75330e-05
 Reference value :  1.75994e-05
 Reference value :  1.77501e-05
 Reference value :  1.77502e-05
 Reference value :  1.77504e-05
 Reference value :  1.77515e-05
 Reference value :  1.77525e-05
 Reference value :  1.77540e-05
 Reference value :  1.77546e-05
 Reference value :  1.77560e-05
 Reference value :  1.77579e-05
 Reference value :  1.77654e-05
 Reference value :  1.77996e-05
 Reference value :  1.79962e-05
 Reference value :  1.80001e-05
 Reference value :  1.80001e-05
 Reference value :  1.80002e-05
 Reference value :  1.80007e-05
 Reference value :  1.80016e-05
 Reference value :  1.80026e-05
 Reference value :  1.80037e-05
 Reference value :  1.80050e-05
 Reference value :  1.80062e-05
 Reference value :  1.80100e-05
 Reference value :  1.80136e-05
 Reference value :  1.80166e-05
 Reference value :  1.80192e-05
 Reference value :  1.80241e-05
 Reference value :  1.80357e-05
 Reference value :  1.80872e-05
 Reference value :  1.82501e-05
 Reference value :  1.82502e-05
 Reference value :  1.82502e-05
 Reference value :  1.82504e-05
 Reference value :  1.82510e-05
 Reference value :  1.82520e-05
 Reference value :  1.82540e-05
 Reference value :  1.82553e-05
 Reference value :  1.82578e-05
 Reference value :  1.82706e-05
 Reference value :  1.83309e-05
 Reference value :  1.85000e-05
 Reference value :  1.85001e-05
 Reference value :  1.85002e-05
 Reference value :  1.85003e-05
 Reference value :  1.85009e-05
 Reference value :  1.85013e-05
 Reference value :  1.85022e-05
 Reference value :  1.85034e-05
 Reference value :  1.85046e-05
 Reference value :  1.85063e-05
 Reference value :  1.85073e-05
 Reference value :  1.85083e-05
 Reference value :  1.85093e-05
 Reference value :  1.85102e-05
 Reference value :  1.85124e-05
 Reference value :  1.85212e-05
 Reference value :  1.85502e-05
 Reference value :  1.86664e-05
 Reference value :  1.87501e-05
 Reference value :  1.87502e-05
 Reference value :  1.87503e-05
 Reference value :  1.87504e-05
 Reference value :  1.87511e-05
 Reference value :  1.87520e-05
 Reference value :  1.87533e-05
 Reference value :  1.87541e-05
 Reference value :  1.87547e-05
 Reference value :  1.87561e-05
 Reference value :  1.87579e-05
 Reference value :  1.87655e-05
 Reference value :  1.88310e-05
 Reference value :  1.90000e-05
 Reference value :  1.90001e-05
 Reference value :  1.90002e-05
 Reference value :  1.90003e-05
 Reference value :  1.90009e-05
 Reference value :  1.90013e-05
 Reference value :  1.90022e-05
 Reference value :  1.90034e-05
 Reference value :  1.90046e-05
 Reference value :  1.90058e-05
 Reference value :  1.90064e-05
 Reference value :  1.90080e-05
 Reference value :  1.90106e-05
 Reference value :  1.90140e-05
 Reference value :  1.90154e-05
 Reference value :  1.90180e-05
 Reference value :  1.90191e-05
 Reference value :  1.90216e-05
 Reference value :  1.90285e-05
 Reference value :  1.90576e-05
 Reference value :  1.92185e-05
 Reference value :  1.92501e-05
 Reference value :  1.92502e-05
 Reference value :  1.92503e-05
 Reference value :  1.92507e-05
 Reference value :  1.92515e-05
 Reference value :  1.92520e-05
 Reference value :  1.92533e-05
 Reference value :  1.92547e-05
 Reference value :  1.92560e-05
 Reference value :  1.92578e-05
 Reference value :  1.92651e-05
 Reference value :  1.92985e-05
 Reference value :  1.94978e-05
 Reference value :  1.95000e-05
 Reference value :  1.95001e-05
 Reference value :  1.95004e-05
 Reference value :  1.95009e-05
 Reference value :  1.95013e-05
 Reference value :  1.95023e-05
 Reference value :  1.95034e-05
 Reference value :  1.95046e-05
 Reference value :  1.95062e-05
 Reference value :  1.95085e-05
 Reference value :  1.95105e-05
 Reference value :  1.95129e-05
 Reference value :  1.95281e-05
 Reference value :  1.96866e-05
 Reference value :  1.97501e-05
 Reference value :  1.97502e-05
 Reference value :  1.97503e-05
 Reference value :  1.97511e-05
 Reference value :  1.97520e-05
 Reference value :  1.97533e-05
 Reference value :  1.97546e-05
 Reference value :  1.97569e-05
 Reference value :  1.97653e-05
 Reference value :  1.98316e-05
 Reference value :  2.00001e-05
 Reference value :  2.00002e-05
 Reference value :  2.00013e-05
 Reference value :  2.00028e-05
 Reference value :  2.00046e-05
 Reference value :  2.00064e-05
 Reference value :  2.00106e-05
 Reference value :  2.00140e-05
 Reference value :  2.00154e-05
 Reference value :  2.00191e-05
 Reference value :  2.00234e-05
 Reference value :  2.00403e-05
 Reference value :  2.00518e-05
 Reference value :  2.00621e-05
 Reference value :  2.00741e-05
 Reference value :  2.00919e-05
 Reference value :  2.01429e-05
 Reference value :  2.02125e-05
 Reference value :  2.02501e-05
 Reference value :  2.02502e-05
 Reference value :  2.02503e-05
 Reference value :  2.02507e-05
 Reference value :  2.02520e-05
 Reference value :  2.02540e-05
 Reference value :  2.02554e-05
 Reference value :  2.02581e-05
 Reference value :  2.02660e-05
 Reference value :  2.03022e-05
 Reference value :  2.03794e-05
 Reference value :  2.04640e-05
 Reference value :  2.05000e-05
 Reference value :  2.05001e-05
 Reference value :  2.05005e-05
 Reference value :  2.05009e-05
 Reference value :  2.05017e-05
 Reference value :  2.05027e-05
 Reference value :  2.05039e-05
 Reference value :  2.05052e-05
 Reference value :  2.05074e-05
 Reference value :  2.05084e-05
 Reference value :  2.05107e-05
 Reference value :  2.05132e-05
 Reference value :  2.05214e-05
 Reference value :  2.05765e-05
 Reference value :  2.07501e-05
 Reference value :  2.07502e-05
 Reference value :  2.07502e-05
 Reference value :  2.07504e-05
 Reference value :  2.07510e-05
 Reference value :  2.07520e-05
 Reference value :  2.07532e-05
 Reference value :  2.07545e-05
 Reference value :  2.07559e-05
 Reference value :  2.07590e-05
 Reference value :  2.07800e-05
 Reference value :  2.10000e-05
 Reference value :  2.10001e-05
 Reference value :  2.10002e-05
 Reference value :  2.10009e-05
 Reference value :  2.10018e-05
 Reference value :  2.10028e-05
 Reference value :  2.10046e-05
 Reference value :  2.10058e-05
 Reference value :  2.10090e-05
 Reference value :  2.10140e-05
 Reference value :  2.10180e-05
 Reference value :  2.10216e-05
 Reference value :  2.10352e-05
 Reference value :  2.10409e-05
 Reference value :  2.10470e-05
 Reference value :  2.10559e-05
 Reference value :  2.10675e-05
 Reference value :  2.10993e-05
 Reference value :  2.11553e-05
 Reference value :  2.12501e-05
 Reference value :  2.12501e-05
 Reference value :  2.12502e-05
 Reference value :  2.12503e-05
 Reference value :  2.12511e-05
 Reference value :  2.12520e-05
 Reference value :  2.12533e-05
 Reference value :  2.12546e-05
 Reference value :  2.12569e-05
 Reference value :  2.12596e-05
 Reference value :  2.12710e-05
 Reference value :  2.13862e-05
 Reference value :  2.15000e-05
 Reference value :  2.15001e-05
 Reference value :  2.15005e-05
 Reference value :  2.15018e-05
 Reference value :  2.15027e-05
 Reference value :  2.15049e-05
 Reference value :  2.15067e-05
 Reference value :  2.15075e-05
 Reference value :  2.15095e-05
 Reference value :  2.15128e-05
 Reference value :  2.15283e-05
 Reference value :  2.17501e-05
 Reference value :  2.17502e-05
 Reference value :  2.17504e-05
 Reference value :  2.17511e-05
 Reference value :  2.17520e-05
 Reference value :  2.17540e-05
 Reference value :  2.17546e-05
 Reference value :  2.17560e-05
 Reference value :  2.17569e-05
 Reference value :  2.17588e-05
 Reference value :  2.17612e-05
 Reference value :  2.17690e-05
 Reference value :  2.18216e-05
 Reference value :  2.20013e-05
 Reference value :  2.20053e-05
 Reference value :  2.20086e-05
 Reference value :  2.20127e-05
 Reference value :  2.20152e-05
 Reference value :  2.20180e-05
 Reference value :  2.20214e-05
 Reference value :  2.20309e-05
 Reference value :  2.20437e-05
 Reference value :  2.20504e-05
 Reference value :  2.20621e-05
 Reference value :  2.20899e-05
 Reference value :  2.21138e-05
 Reference value :  2.21277e-05
 Reference value :  2.21518e-05
 Reference value :  2.22501e-05
 Reference value :  2.22502e-05
 Reference value :  2.22503e-05
 Reference value :  2.22507e-05
 Reference value :  2.22520e-05
 Reference value :  2.22540e-05
 Reference value :  2.22554e-05
 Reference value :  2.22570e-05
 Reference value :  2.22620e-05
 Reference value :  2.23006e-05
 Reference value :  2.24882e-05
 Reference value :  2.25000e-05
 Reference value :  2.25001e-05
 Reference value :  2.25002e-05
 Reference value :  2.25005e-05
 Reference value :  2.25013e-05
 Reference value :  2.25022e-05
 Reference value :  2.25041e-05
 Reference value :  2.25067e-05
 Reference value :  2.25075e-05
 Reference value :  2.25095e-05
 Reference value :  2.25116e-05
 Reference value :  2.25141e-05
 Reference value :  2.25283e-05
 Reference value :  2.27119e-05
 Reference value :  2.27501e-05
 Reference value :  2.27502e-05
 Reference value :  2.27503e-05
 Reference value :  2.27511e-05
 Reference value :  2.27520e-05
 Reference value :  2.27540e-05
 Reference value :  2.27553e-05
 Reference value :  2.27570e-05
 Reference value :  2.27600e-05
 Reference value :  2.27632e-05
 Reference value :  2.27752e-05
 Reference value :  2.28217e-05
 Reference value :  2.30000e-05
 Reference value :  2.30013e-05
 Reference value :  2.30039e-05
 Reference value :  2.30053e-05
 Reference value :  2.30075e-05
 Reference value :  2.30100e-05
 Reference value :  2.30127e-05
 Reference value :  2.30153e-05
 Reference value :  2.30172e-05
 Reference value :  2.30195e-05
 Reference value :  2.30238e-05
 Reference value :  2.30323e-05
 Reference value :  2.30398e-05
 Reference value :  2.30463e-05
 Reference value :  2.30608e-05
 Reference value :  2.30998e-05
 Reference value :  2.31384e-05
 Reference value :  2.31767e-05
 Reference value :  2.32501e-05
 Reference value :  2.32502e-05
 Reference value :  2.32503e-05
 Reference value :  2.32507e-05
 Reference value :  2.32520e-05
 Reference value :  2.32540e-05
 Reference value :  2.32553e-05
 Reference value :  2.32569e-05
 Reference value :  2.32651e-05
 Reference value :  2.33313e-05
 Reference value :  2.35000e-05
 Reference value :  2.35001e-05
 Reference value :  2.35002e-05
 Reference value :  2.35013e-05
 Reference value :  2.35022e-05
 Reference value :  2.35041e-05
 Reference value :  2.35067e-05
 Reference value :  2.35075e-05
 Reference value :  2.35095e-05
 Reference value :  2.35116e-05
 Reference value :  2.35128e-05
 Reference value :  2.35168e-05
 Reference value :  2.35283e-05
 Reference value :  2.35661e-05
 Reference value :  2.37111e-05
 Reference value :  2.37501e-05
 Reference value :  2.37502e-05
 Reference value :  2.37502e-05
 Reference value :  2.37504e-05
 Reference value :  2.37511e-05
 Reference value :  2.37515e-05
 Reference value :  2.37520e-05
 Reference value :  2.37533e-05
 Reference value :  2.37540e-05
 Reference value :  2.37553e-05
 Reference value :  2.37569e-05
 Reference value :  2.37588e-05
 Reference value :  2.37612e-05
 Reference value :  2.37690e-05
 Reference value :  2.38212e-05
 Reference value :  2.40000e-05
 Reference value :  2.40001e-05
 Reference value :  2.40003e-05
 Reference value :  2.40013e-05
 Reference value :  2.40022e-05
 Reference value :  2.40040e-05
 Reference value :  2.40052e-05
 Reference value :  2.40058e-05
 Reference value :  2.40071e-05
 Reference value :  2.40105e-05
 Reference value :  2.40115e-05
 Reference value :  2.40138e-05
 Reference value :  2.40164e-05
 Reference value :  2.40187e-05
 Reference value :  2.40228e-05
 Reference value :  2.40289e-05
 Reference value :  2.40353e-05
 Reference value :  2.40494e-05
 Reference value :  2.40549e-05
 Reference value :  2.40683e-05
 Reference value :  2.41173e-05
 Reference value :  2.41879e-05
 Reference value :  2.42501e-05
 Reference value :  2.42502e-05
 Reference value :  2.42503e-05
 Reference value :  2.42511e-05
 Reference value :  2.42520e-05
 Reference value :  2.42540e-05
 Reference value :  2.42547e-05
 Reference value :  2.42560e-05
 Reference value :  2.42596e-05
 Reference value :  2.42710e-05
 Reference value :  2.43189e-05
 Reference value :  2.43590e-05
 Reference value :  2.44486e-05
 Reference value :  2.45000e-05
 Reference value :  2.45001e-05
 Reference value :  2.45001e-05
 Reference value :  2.45003e-05
 Reference value :  2.45013e-05
 Reference value :  2.45022e-05
 Reference value :  2.45041e-05
 Reference value :  2.45056e-05
 Reference value :  2.45075e-05
 Reference value :  2.45095e-05
 Reference value :  2.45116e-05
 Reference value :  2.45141e-05
 Reference value :  2.45283e-05
 Reference value :  2.46147e-05
 Reference value :  2.47501e-05
 Reference value :  2.47502e-05
 Reference value :  2.47502e-05
 Reference value :  2.47503e-05
 Reference value :  2.47507e-05
 Reference value :  2.47510e-05
 Reference value :  2.47515e-05
 Reference value :  2.47520e-05
 Reference value :  2.47533e-05
 Reference value :  2.47540e-05
 Reference value :  2.47546e-05
 Reference value :  2.47560e-05
 Reference value :  2.47569e-05
 Reference value :  2.47588e-05
 Reference value :  2.47599e-05
 Reference value :  2.47632e-05
 Reference value :  2.47690e-05
 Reference value :  2.47837e-05
 Reference value :  2.48572e-05
 Reference value :  2.50000e-05
 Reference value :  2.50001e-05
 Reference value :  2.50001e-05
 Reference value :  2.50002e-05
 Reference value :  2.50003e-05
 Reference value :  2.50013e-05
 Reference value :  2.50022e-05
 Reference value :  2.50046e-05
 Reference value :  2.50058e-05
 Reference value :  2.50071e-05
 Reference value :  2.50090e-05
 Reference value :  2.50108e-05
 Reference value :  2.50128e-05
 Reference value :  2.50158e-05
 Reference value :  2.50197e-05
 Reference value :  2.50212e-05
 Reference value :  2.50243e-05
 Reference value :  2.50320e-05
 Reference value :  2.50800e-05
 Reference value :  2.52501e-05
 Reference value :  2.52502e-05
 Reference value :  2.52503e-05
 Reference value :  2.52507e-05
 Reference value :  2.52515e-05
 Reference value :  2.52520e-05
 Reference value :  2.52533e-05
 Reference value :  2.52551e-05
 Reference value :  2.52572e-05
 Reference value :  2.52603e-05
 Reference value :  2.52662e-05
 Reference value :  2.52939e-05
 Reference value :  2.54334e-05
 Reference value :  2.55000e-05
 Reference value :  2.55000e-05
 Reference value :  2.55000e-05
 Reference value :  2.55000e-05
 Reference value :  2.55001e-05
 Reference value :  2.55001e-05
 Reference value :  2.55002e-05
 Reference value :  2.55008e-05
 Reference value :  2.55019e-05
 Reference value :  2.55030e-05
 Reference value :  2.55044e-05
 Reference value :  2.55057e-05
 Reference value :  2.55079e-05
 Reference value :  2.55221e-05
 Reference value :  2.55288e-05
 Reference value :  2.55337e-05
 Reference value :  2.55374e-05
 Reference value :  2.55406e-05
 Reference value :  2.55457e-05
 Reference value :  2.55508e-05
 Reference value :  2.55622e-05
 Reference value :  2.55883e-05
 Reference value :  2.57501e-05
 Reference value :  2.57502e-05
 Reference value :  2.57504e-05
 Reference value :  2.57515e-05
 Reference value :  2.57525e-05
 Reference value :  2.57546e-05
 Reference value :  2.57568e-05
 Reference value :  2.57648e-05
 Reference value :  2.58292e-05
 Reference value :  2.60000e-05
 Reference value :  2.60001e-05
 Reference value :  2.60003e-05
 Reference value :  2.60013e-05
 Reference value :  2.60022e-05
 Reference value :  2.60040e-05
 Reference value :  2.60063e-05
 Reference value :  2.60088e-05
 Reference value :  2.60131e-05
 Reference value :  2.60164e-05
 Reference value :  2.60204e-05
 Reference value :  2.60330e-05
 Reference value :  2.61731e-05
 Reference value :  2.62502e-05
 Reference value :  2.62502e-05
 Reference value :  2.62507e-05
 Reference value :  2.62520e-05
 Reference value :  2.62533e-05
 Reference value :  2.62546e-05
 Reference value :  2.62570e-05
 Reference value :  2.62619e-05
 Reference value :  2.62996e-05
 Reference value :  2.65000e-05
 Reference value :  2.65001e-05
 Reference value :  2.65001e-05
 Reference value :  2.65012e-05
 Reference value :  2.65031e-05
 Reference value :  2.65051e-05
 Reference value :  2.65074e-05
 Reference value :  2.65110e-05
 Reference value :  2.65156e-05
 Reference value :  2.65192e-05
 Reference value :  2.65254e-05
 Reference value :  2.65857e-05
 Reference value :  2.67501e-05
 Reference value :  2.67502e-05
 Reference value :  2.67507e-05
 Reference value :  2.67520e-05
 Reference value :  2.67540e-05
 Reference value :  2.67560e-05
 Reference value :  2.67594e-05
 Reference value :  2.68303e-05
 Reference value :  2.70000e-05
 Reference value :  2.70001e-05
 Reference value :  2.70002e-05
 Reference value :  2.70006e-05
 Reference value :  2.70016e-05
 Reference value :  2.70032e-05
 Reference value :  2.70053e-05
 Reference value :  2.70074e-05
 Reference value :  2.70095e-05
 Reference value :  2.70118e-05
 Reference value :  2.70131e-05
 Reference value :  2.70209e-05
 Reference value :  2.70572e-05
 Reference value :  2.72501e-05
 Reference value :  2.72502e-05
 Reference value :  2.72503e-05
 Reference value :  2.72511e-05
 Reference value :  2.72520e-05
 Reference value :  2.72533e-05
 Reference value :  2.72546e-05
 Reference value :  2.72560e-05
 Reference value :  2.72579e-05
 Reference value :  2.72654e-05
 Reference value :  2.72997e-05
 Reference value :  2.75000e-05
 Reference value :  2.75002e-05
 Reference value :  2.75013e-05
 Reference value :  2.75022e-05
 Reference value :  2.75040e-05
 Reference value :  2.75052e-05
 Reference value :  2.75064e-05
 Reference value :  2.75090e-05
 Reference value :  2.75140e-05
 Reference value :  2.75167e-05
 Reference value :  2.75191e-05
 Reference value :  2.75253e-05
 Reference value :  2.75576e-05
 Reference value :  2.77501e-05
 Reference value :  2.77502e-05
 Reference value :  2.77503e-05
 Reference value :  2.77515e-05
 Reference value :  2.77533e-05
 Reference value :  2.77547e-05
 Reference value :  2.77569e-05
 Reference value :  2.77617e-05
 Reference value :  2.77985e-05
 Reference value :  2.79979e-05
 Reference value :  2.80000e-05
 Reference value :  2.80001e-05
 Reference value :  2.80005e-05
 Reference value :  2.80013e-05
 Reference value :  2.80022e-05
 Reference value :  2.80039e-05
 Reference value :  2.80053e-05
 Reference value :  2.80074e-05
 Reference value :  2.80096e-05
 Reference value :  2.80133e-05
 Reference value :  2.80212e-05
 Reference value :  2.80560e-05
 Reference value :  2.82501e-05
 Reference value :  2.82501e-05
 Reference value :  2.82502e-05
 Reference value :  2.82503e-05
 Reference value :  2.82507e-05
 Reference value :  2.82515e-05
 Reference value :  2.82520e-05
 Reference value :  2.82533e-05
 Reference value :  2.82546e-05
 Reference value :  2.82560e-05
 Reference value :  2.82596e-05
 Reference value :  2.82819e-05
 Reference value :  2.83875e-05
 Reference value :  2.85000e-05
 Reference value :  2.85001e-05
 Reference value :  2.85001e-05
 Reference value :  2.85002e-05
 Reference value :  2.85005e-05
 Reference value :  2.85013e-05
 Reference value :  2.85022e-05
 Reference value :  2.85040e-05
 Reference value :  2.85046e-05
 Reference value :  2.85058e-05
 Reference value :  2.85071e-05
 Reference value :  2.85090e-05
 Reference value :  2.85126e-05
 Reference value :  2.85140e-05
 Reference value :  2.85154e-05
 Reference value :  2.85180e-05
 Reference value :  2.85191e-05
 Reference value :  2.85216e-05
 Reference value :  2.85285e-05
 Reference value :  2.85413e-05
 Reference value :  2.85540e-05
 Reference value :  2.85658e-05
 Reference value :  2.85788e-05
 Reference value :  2.85834e-05
 Reference value :  2.86110e-05
 Reference value :  2.86598e-05
 Reference value :  2.86907e-05
 Reference value :  2.87501e-05
 Reference value :  2.87502e-05
 Reference value :  2.87502e-05
 Reference value :  2.87504e-05
 Reference value :  2.87511e-05
 Reference value :  2.87520e-05
 Reference value :  2.87533e-05
 Reference value :  2.87546e-05
 Reference value :  2.87560e-05
 Reference value :  2.87569e-05
 Reference value :  2.87596e-05
 Reference value :  2.87711e-05
 Reference value :  2.88240e-05
 Reference value :  2.88934e-05
 Reference value :  2.89351e-05
 Reference value :  2.89638e-05
 Reference value :  2.90000e-05
 Reference value :  2.90002e-05
 Reference value :  2.90007e-05
 Reference value :  2.90016e-05
 Reference value :  2.90031e-05
 Reference value :  2.90062e-05
 Reference value :  2.90083e-05
 Reference value :  2.90112e-05
 Reference value :  2.90287e-05
 Reference value :  2.92501e-05
 Reference value :  2.92503e-05
 Reference value :  2.92515e-05
 Reference value :  2.92532e-05
 Reference value :  2.92546e-05
 Reference value :  2.92568e-05
 Reference value :  2.92645e-05
 Reference value :  2.93338e-05
 Reference value :  2.95000e-05
 Reference value :  2.95001e-05
 Reference value :  2.95009e-05
 Reference value :  2.95018e-05
 Reference value :  2.95028e-05
 Reference value :  2.95046e-05
 Reference value :  2.95058e-05
 Reference value :  2.95064e-05
 Reference value :  2.95090e-05
 Reference value :  2.95126e-05
 Reference value :  2.95140e-05
 Reference value :  2.95167e-05
 Reference value :  2.95191e-05
 Reference value :  2.95216e-05
 Reference value :  2.95285e-05
 Reference value :  2.95350e-05
 Reference value :  2.95409e-05
 Reference value :  2.95467e-05
 Reference value :  2.95613e-05
 Reference value :  2.95961e-05
 Reference value :  2.96811e-05
 Reference value :  2.97501e-05
 Reference value :  2.97503e-05
 Reference value :  2.97507e-05
 Reference value :  2.97520e-05
 Reference value :  2.97546e-05
 Reference value :  2.97569e-05
 Reference value :  2.97652e-05
 Reference value :  2.98309e-05
 Reference value :  3.00000e-05
 Reference value :  3.00001e-05
 Reference value :  3.00002e-05
 Reference value :  3.00009e-05
 Reference value :  3.00013e-05
 Reference value :  3.00022e-05
 Reference value :  3.00041e-05
 Reference value :  3.00067e-05
 Reference value :  3.00075e-05
 Reference value :  3.00095e-05
 Reference value :  3.00116e-05
 Reference value :  3.00128e-05
 Reference value :  3.00207e-05
 Reference value :  3.00663e-05
 Reference value :  3.02501e-05
 Reference value :  3.02501e-05
 Reference value :  3.02502e-05
 Reference value :  3.02504e-05
 Reference value :  3.02515e-05
 Reference value :  3.02525e-05
 Reference value :  3.02546e-05
 Reference value :  3.02579e-05
 Reference value :  3.02690e-05
 Reference value :  3.03583e-05
 Reference value :  3.05013e-05
 Reference value :  3.05053e-05
 Reference value :  3.05076e-05
 Reference value :  3.05113e-05
 Reference value :  3.05139e-05
 Reference value :  3.05169e-05
 Reference value :  3.05190e-05
 Reference value :  3.05227e-05
 Reference value :  3.05311e-05
 Reference value :  3.05425e-05
 Reference value :  3.05482e-05
 Reference value :  3.05723e-05
 Reference value :  3.06166e-05
 Reference value :  3.06372e-05
 Reference value :  3.06956e-05
 Reference value :  3.07501e-05
 Reference value :  3.07502e-05
 Reference value :  3.07507e-05
 Reference value :  3.07520e-05
 Reference value :  3.07540e-05
 Reference value :  3.07554e-05
 Reference value :  3.07621e-05
 Reference value :  3.08009e-05
 Reference value :  3.10000e-05
 Reference value :  3.10001e-05
 Reference value :  3.10002e-05
 Reference value :  3.10013e-05
 Reference value :  3.10022e-05
 Reference value :  3.10041e-05
 Reference value :  3.10056e-05
 Reference value :  3.10075e-05
 Reference value :  3.10095e-05
 Reference value :  3.10116e-05
 Reference value :  3.10141e-05
 Reference value :  3.10283e-05
 Reference value :  3.10662e-05
 Reference value :  3.12501e-05
 Reference value :  3.12502e-05
 Reference value :  3.12507e-05
 Reference value :  3.12520e-05
 Reference value :  3.12540e-05
 Reference value :  3.12560e-05
 Reference value :  3.12600e-05
 Reference value :  3.12839e-05
 Reference value :  3.15000e-05
 Reference value :  3.15002e-05
 Reference value :  3.15018e-05
 Reference value :  3.15028e-05
 Reference value :  3.15046e-05
 Reference value :  3.15058e-05
 Reference value :  3.15071e-05
 Reference value :  3.15090e-05
 Reference value :  3.15115e-05
 Reference value :  3.15138e-05
 Reference value :  3.15164e-05
 Reference value :  3.15187e-05
 Reference value :  3.15212e-05
 Reference value :  3.15275e-05
 Reference value :  3.15345e-05
 Reference value :  3.15380e-05
 Reference value :  3.15406e-05
 Reference value :  3.15472e-05
 Reference value :  3.15650e-05
 Reference value :  3.16241e-05
 Reference value :  3.16593e-05
 Reference value :  3.16779e-05
 Reference value :  3.17214e-05
 Reference value :  3.17501e-05
 Reference value :  3.17502e-05
 Reference value :  3.17503e-05
 Reference value :  3.17507e-05
 Reference value :  3.17520e-05
 Reference value :  3.17540e-05
 Reference value :  3.17553e-05
 Reference value :  3.17571e-05
 Reference value :  3.17622e-05
 Reference value :  3.18020e-05
 Reference value :  3.18893e-05
 Reference value :  3.20000e-05
 Reference value :  3.20001e-05
 Reference value :  3.20001e-05
 Reference value :  3.20002e-05
 Reference value :  3.20003e-05
 Reference value :  3.20009e-05
 Reference value :  3.20013e-05
 Reference value :  3.20022e-05
 Reference value :  3.20033e-05
 Reference value :  3.20049e-05
 Reference value :  3.20067e-05
 Reference value :  3.20075e-05
 Reference value :  3.20095e-05
 Reference value :  3.20116e-05
 Reference value :  3.20141e-05
 Reference value :  3.20419e-05
 Reference value :  3.22501e-05
 Reference value :  3.22502e-05
 Reference value :  3.22502e-05
 Reference value :  3.22503e-05
 Reference value :  3.22511e-05
 Reference value :  3.22520e-05
 Reference value :  3.22540e-05
 Reference value :  3.22553e-05
 Reference value :  3.22569e-05
 Reference value :  3.22588e-05
 Reference value :  3.22631e-05
 Reference value :  3.22751e-05
 Reference value :  3.23211e-05
 Reference value :  3.25000e-05
 Reference value :  3.25001e-05
 Reference value :  3.25002e-05
 Reference value :  3.25009e-05
 Reference value :  3.25018e-05
 Reference value :  3.25028e-05
 Reference value :  3.25046e-05
 Reference value :  3.25058e-05
 Reference value :  3.25071e-05
 Reference value :  3.25105e-05
 Reference value :  3.25126e-05
 Reference value :  3.25138e-05
 Reference value :  3.25164e-05
 Reference value :  3.25187e-05
 Reference value :  3.25228e-05
 Reference value :  3.25289e-05
 Reference value :  3.25343e-05
 Reference value :  3.25451e-05
 Reference value :  3.25719e-05
 Reference value :  3.26589e-05
 Reference value :  3.27501e-05
 Reference value :  3.27502e-05
 Reference value :  3.27503e-05
 Reference value :  3.27511e-05
 Reference value :  3.27520e-05
 Reference value :  3.27533e-05
 Reference value :  3.27546e-05
 Reference value :  3.27568e-05
 Reference value :  3.27617e-05
 Reference value :  3.27983e-05
 Reference value :  3.30000e-05
 Reference value :  3.30001e-05
 Reference value :  3.30002e-05
 Reference value :  3.30005e-05
 Reference value :  3.30013e-05
 Reference value :  3.30022e-05
 Reference value :  3.30040e-05
 Reference value :  3.30053e-05
 Reference value :  3.30073e-05
 Reference value :  3.30093e-05
 Reference value :  3.30112e-05
 Reference value :  3.30162e-05
 Reference value :  3.30891e-05
 Reference value :  3.32501e-05
 Reference value :  3.32502e-05
 Reference value :  3.32504e-05
 Reference value :  3.32515e-05
 Reference value :  3.32526e-05
 Reference value :  3.32541e-05
 Reference value :  3.32554e-05
 Reference value :  3.32579e-05
 Reference value :  3.32715e-05
 Reference value :  3.33848e-05
 Reference value :  3.35004e-05
 Reference value :  3.35015e-05
 Reference value :  3.35023e-05
 Reference value :  3.35034e-05
 Reference value :  3.35046e-05
 Reference value :  3.35058e-05
 Reference value :  3.35071e-05
 Reference value :  3.35089e-05
 Reference value :  3.35110e-05
 Reference value :  3.35191e-05
 Reference value :  3.35779e-05
 Reference value :  3.37501e-05
 Reference value :  3.37502e-05
 Reference value :  3.37503e-05
 Reference value :  3.37510e-05
 Reference value :  3.37520e-05
 Reference value :  3.37542e-05
 Reference value :  3.37561e-05
 Reference value :  3.37585e-05
 Reference value :  3.37662e-05
 Reference value :  3.37940e-05
 Reference value :  3.40000e-05
 Reference value :  3.40000e-05
 Reference value :  3.40000e-05
 Reference value :  3.40000e-05
 Reference value :  3.40001e-05
 Reference value :  3.40001e-05
 Reference value :  3.40004e-05
 Reference value :  3.40019e-05
 Reference value :  3.40037e-05
 Reference value :  3.40057e-05
 Reference value :  3.40071e-05
 Reference value :  3.40151e-05
 Reference value :  3.40288e-05
 Reference value :  3.40337e-05
 Reference value :  3.40374e-05
 Reference value :  3.40433e-05
 Reference value :  3.40484e-05
 Reference value :  3.40572e-05
 Reference value :  3.40839e-05
 Reference value :  3.41805e-05
 Reference value :  3.42501e-05
 Reference value :  3.42502e-05
 Reference value :  3.42504e-05
 Reference value :  3.42515e-05
 Reference value :  3.42526e-05
 Reference value :  3.42541e-05
 Reference value :  3.42554e-05
 Reference value :  3.42569e-05
 Reference value :  3.42617e-05
 Reference value :  3.42981e-05
 Reference value :  3.44861e-05
 Reference value :  3.45001e-05
 Reference value :  3.45002e-05
 Reference value :  3.45013e-05
 Reference value :  3.45022e-05
 Reference value :  3.45040e-05
 Reference value :  3.45053e-05
 Reference value :  3.45088e-05
 Reference value :  3.45131e-05
 Reference value :  3.45164e-05
 Reference value :  3.45228e-05
 Reference value :  3.45629e-05
 Reference value :  3.47501e-05
 Reference value :  3.47502e-05
 Reference value :  3.47507e-05
 Reference value :  3.47520e-05
 Reference value :  3.47540e-05
 Reference value :  3.47553e-05
 Reference value :  3.47579e-05
 Reference value :  3.47713e-05
 Reference value :  3.49962e-05
 Reference value :  3.50000e-05
 Reference value :  3.50001e-05
 Reference value :  3.50005e-05
 Reference value :  3.50013e-05
 Reference value :  3.50022e-05
 Reference value :  3.50040e-05
 Reference value :  3.50052e-05
 Reference value :  3.50064e-05
 Reference value :  3.50106e-05
 Reference value :  3.50140e-05
 Reference value :  3.50167e-05
 Reference value :  3.50191e-05
 Reference value :  3.50234e-05
 Reference value :  3.50576e-05
 Reference value :  3.52501e-05
 Reference value :  3.52502e-05
 Reference value :  3.52507e-05
 Reference value :  3.52520e-05
 Reference value :  3.52540e-05
 Reference value :  3.52560e-05
 Reference value :  3.52595e-05
 Reference value :  3.52813e-05
 Reference value :  3.54977e-05
 Reference value :  3.55001e-05
 Reference value :  3.55002e-05
 Reference value :  3.55009e-05
 Reference value :  3.55018e-05
 Reference value :  3.55028e-05
 Reference value :  3.55046e-05
 Reference value :  3.55073e-05
 Reference value :  3.55102e-05
 Reference value :  3.55162e-05
 Reference value :  3.55893e-05
 Reference value :  3.57501e-05
 Reference value :  3.57502e-05
 Reference value :  3.57503e-05
 Reference value :  3.57511e-05
 Reference value :  3.57520e-05
 Reference value :  3.57541e-05
 Reference value :  3.57570e-05
 Reference value :  3.57715e-05
 Reference value :  3.60000e-05
 Reference value :  3.60004e-05
 Reference value :  3.60016e-05
 Reference value :  3.60029e-05
 Reference value :  3.60047e-05
 Reference value :  3.60059e-05
 Reference value :  3.60091e-05
 Reference value :  3.60141e-05
 Reference value :  3.60166e-05
 Reference value :  3.60189e-05
 Reference value :  3.60250e-05
 Reference value :  3.60857e-05
 Reference value :  3.62501e-05
 Reference value :  3.62502e-05
 Reference value :  3.62504e-05
 Reference value :  3.62515e-05
 Reference value :  3.62533e-05
 Reference value :  3.62547e-05
 Reference value :  3.62569e-05
 Reference value :  3.62652e-05
 Reference value :  3.63303e-05
 Reference value :  3.65000e-05
 Reference value :  3.65001e-05
 Reference value :  3.65003e-05
 Reference value :  3.65013e-05
 Reference value :  3.65022e-05
 Reference value :  3.65040e-05
 Reference value :  3.65053e-05
 Reference value :  3.65073e-05
 Reference value :  3.65093e-05
 Reference value :  3.65112e-05
 Reference value :  3.65124e-05
 Reference value :  3.65212e-05
 Reference value :  3.65893e-05
 Reference value :  3.67501e-05
 Reference value :  3.67502e-05
 Reference value :  3.67503e-05
 Reference value :  3.67507e-05
 Reference value :  3.67520e-05
 Reference value :  3.67541e-05
 Reference value :  3.67561e-05
 Reference value :  3.67579e-05
 Reference value :  3.67712e-05
 Reference value :  3.68301e-05
 Reference value :  3.70000e-05
 Reference value :  3.70000e-05
 Reference value :  3.70001e-05
 Reference value :  3.70002e-05
 Reference value :  3.70009e-05
 Reference value :  3.70018e-05
 Reference value :  3.70028e-05
 Reference value :  3.70046e-05
 Reference value :  3.70058e-05
 Reference value :  3.70064e-05
 Reference value :  3.70090e-05
 Reference value :  3.70126e-05
 Reference value :  3.70140e-05
 Reference value :  3.70167e-05
 Reference value :  3.70191e-05
 Reference value :  3.70234e-05
 Reference value :  3.70338e-05
 Reference value :  3.70494e-05
 Reference value :  3.70602e-05
 Reference value :  3.70734e-05
 Reference value :  3.70905e-05
 Reference value :  3.71631e-05
 Reference value :  3.72501e-05
 Reference value :  3.72502e-05
 Reference value :  3.72504e-05
 Reference value :  3.72515e-05
 Reference value :  3.72525e-05
 Reference value :  3.72546e-05
 Reference value :  3.72569e-05
 Reference value :  3.72618e-05
 Reference value :  3.72992e-05
 Reference value :  3.73554e-05
 Reference value :  3.73856e-05
 Reference value :  3.74063e-05
 Reference value :  3.75000e-05
 Reference value :  3.75001e-05
 Reference value :  3.75005e-05
 Reference value :  3.75018e-05
 Reference value :  3.75028e-05
 Reference value :  3.75046e-05
 Reference value :  3.75073e-05
 Reference value :  3.75093e-05
 Reference value :  3.75112e-05
 Reference value :  3.75213e-05
 Reference value :  3.77501e-05
 Reference value :  3.77502e-05
 Reference value :  3.77507e-05
 Reference value :  3.77520e-05
 Reference value :  3.77541e-05
 Reference value :  3.77561e-05
 Reference value :  3.77620e-05
 Reference value :  3.78310e-05
 Reference value :  3.80000e-05
 Reference value :  3.80001e-05
 Reference value :  3.80005e-05
 Reference value :  3.80013e-05
 Reference value :  3.80022e-05
 Reference value :  3.80040e-05
 Reference value :  3.80052e-05
 Reference value :  3.80064e-05
 Reference value :  3.80090e-05
 Reference value :  3.80140e-05
 Reference value :  3.80167e-05
 Reference value :  3.80191e-05
 Reference value :  3.80253e-05
 Reference value :  3.80349e-05
 Reference value :  3.80439e-05
 Reference value :  3.80553e-05
 Reference value :  3.80961e-05
 Reference value :  3.82251e-05
 Reference value :  3.82502e-05
 Reference value :  3.82504e-05
 Reference value :  3.82515e-05
 Reference value :  3.82533e-05
 Reference value :  3.82553e-05
 Reference value :  3.82578e-05
 Reference value :  3.82815e-05
 Reference value :  3.85001e-05
 Reference value :  3.85001e-05
 Reference value :  3.85005e-05
 Reference value :  3.85017e-05
 Reference value :  3.85032e-05
 Reference value :  3.85053e-05
 Reference value :  3.85075e-05
 Reference value :  3.85108e-05
 Reference value :  3.85134e-05
 Reference value :  3.85215e-05
 Reference value :  3.85560e-05
 Reference value :  3.87501e-05
 Reference value :  3.87502e-05
 Reference value :  3.87507e-05
 Reference value :  3.87520e-05
 Reference value :  3.87532e-05
 Reference value :  3.87546e-05
 Reference value :  3.87569e-05
 Reference value :  3.87599e-05
 Reference value :  3.87751e-05
 Reference value :  3.88586e-05
 Reference value :  3.90000e-05
 Reference value :  3.90001e-05
 Reference value :  3.90002e-05
 Reference value :  3.90009e-05
 Reference value :  3.90018e-05
 Reference value :  3.90028e-05
 Reference value :  3.90040e-05
 Reference value :  3.90052e-05
 Reference value :  3.90064e-05
 Reference value :  3.90090e-05
 Reference value :  3.90115e-05
 Reference value :  3.90138e-05
 Reference value :  3.90162e-05
 Reference value :  3.90197e-05
 Reference value :  3.90247e-05
 Reference value :  3.90359e-05
 Reference value :  3.90431e-05
 Reference value :  3.90484e-05
 Reference value :  3.90785e-05
 Reference value :  3.91178e-05
 Reference value :  3.91468e-05
 Reference value :  3.92279e-05
 Reference value :  3.92502e-05
 Reference value :  3.92504e-05
 Reference value :  3.92520e-05
 Reference value :  3.92547e-05
 Reference value :  3.92570e-05
 Reference value :  3.92655e-05
 Reference value :  3.93867e-05
 Reference value :  3.95000e-05
 Reference value :  3.95002e-05
 Reference value :  3.95009e-05
 Reference value :  3.95018e-05
 Reference value :  3.95027e-05
 Reference value :  3.95049e-05
 Reference value :  3.95067e-05
 Reference value :  3.95075e-05
 Reference value :  3.95106e-05
 Reference value :  3.95128e-05
 Reference value :  3.95208e-05
 Reference value :  3.95661e-05
 Reference value :  3.97501e-05
 Reference value :  3.97502e-05
 Reference value :  3.97502e-05
 Reference value :  3.97504e-05
 Reference value :  3.97511e-05
 Reference value :  3.97520e-05
 Reference value :  3.97533e-05
 Reference value :  3.97546e-05
 Reference value :  3.97560e-05
 Reference value :  3.97569e-05
 Reference value :  3.97588e-05
 Reference value :  3.97632e-05
 Reference value :  3.97751e-05
 Reference value :  3.98211e-05
 Reference value :  4.00000e-05
 Reference value :  4.00001e-05
 Reference value :  4.00001e-05
 Reference value :  4.00002e-05
 Reference value :  4.00009e-05
 Reference value :  4.00013e-05
 Reference value :  4.00022e-05
 Reference value :  4.00034e-05
 Reference value :  4.00046e-05
 Reference value :  4.00058e-05
 Reference value :  4.00064e-05
 Reference value :  4.00080e-05
 Reference value :  4.00105e-05
 Reference value :  4.00115e-05
 Reference value :  4.00138e-05
 Reference value :  4.00164e-05
 Reference value :  4.00176e-05
 Reference value :  4.00187e-05
 Reference value :  4.00212e-05
 Reference value :  4.00248e-05
 Reference value :  4.00333e-05
 Reference value :  4.00393e-05
 Reference value :  4.00456e-05
 Reference value :  4.00994e-05
 Reference value :  4.02179e-05
 Reference value :  4.02501e-05
 Reference value :  4.02502e-05
 Reference value :  4.02503e-05
 Reference value :  4.02511e-05
 Reference value :  4.02520e-05
 Reference value :  4.02540e-05
 Reference value :  4.02554e-05
 Reference value :  4.02599e-05
 Reference value :  4.02835e-05
 Reference value :  4.03490e-05
 Reference value :  4.05000e-05
 Reference value :  4.05001e-05
 Reference value :  4.05005e-05
 Reference value :  4.05013e-05
 Reference value :  4.05022e-05
 Reference value :  4.05041e-05
 Reference value :  4.05068e-05
 Reference value :  4.05076e-05
 Reference value :  4.05095e-05
 Reference value :  4.05128e-05
 Reference value :  4.05208e-05
 Reference value :  4.06143e-05
 Reference value :  4.07501e-05
 Reference value :  4.07502e-05
 Reference value :  4.07503e-05
 Reference value :  4.07511e-05
 Reference value :  4.07520e-05
 Reference value :  4.07533e-05
 Reference value :  4.07546e-05
 Reference value :  4.07560e-05
 Reference value :  4.07578e-05
 Reference value :  4.07631e-05
 Reference value :  4.07986e-05
 Reference value :  4.10013e-05
 Reference value :  4.10053e-05
 Reference value :  4.10076e-05
 Reference value :  4.10114e-05
 Reference value :  4.10138e-05
 Reference value :  4.10160e-05
 Reference value :  4.10179e-05
 Reference value :  4.10214e-05
 Reference value :  4.10266e-05
 Reference value :  4.10339e-05
 Reference value :  4.10759e-05
 Reference value :  4.12501e-05
 Reference value :  4.12502e-05
 Reference value :  4.12504e-05
 Reference value :  4.12515e-05
 Reference value :  4.12533e-05
 Reference value :  4.12547e-05
 Reference value :  4.12569e-05
 Reference value :  4.12706e-05
 Reference value :  4.13856e-05
 Reference value :  4.15000e-05
 Reference value :  4.15001e-05
 Reference value :  4.15002e-05
 Reference value :  4.15009e-05
 Reference value :  4.15022e-05
 Reference value :  4.15040e-05
 Reference value :  4.15063e-05
 Reference value :  4.15095e-05
 Reference value :  4.15117e-05
 Reference value :  4.15172e-05
 Reference value :  4.15622e-05
 Reference value :  4.17501e-05
 Reference value :  4.17502e-05
 Reference value :  4.17503e-05
 Reference value :  4.17510e-05
 Reference value :  4.17520e-05
 Reference value :  4.17540e-05
 Reference value :  4.17553e-05
 Reference value :  4.17579e-05
 Reference value :  4.17712e-05
 Reference value :  4.18874e-05
 Reference value :  4.20000e-05
 Reference value :  4.20001e-05
 Reference value :  4.20005e-05
 Reference value :  4.20018e-05
 Reference value :  4.20028e-05
 Reference value :  4.20046e-05
 Reference value :  4.20058e-05
 Reference value :  4.20071e-05
 Reference value :  4.20111e-05
 Reference value :  4.20331e-05
 Reference value :  4.22501e-05
 Reference value :  4.22502e-05
 Reference value :  4.22503e-05
 Reference value :  4.22511e-05
 Reference value :  4.22520e-05
 Reference value :  4.22542e-05
 Reference value :  4.22572e-05
 Reference value :  4.22628e-05
 Reference value :  4.22939e-05
 Reference value :  4.25000e-05
 Reference value :  4.25000e-05
 Reference value :  4.25001e-05
 Reference value :  4.25002e-05
 Reference value :  4.25019e-05
 Reference value :  4.25037e-05
 Reference value :  4.25057e-05
 Reference value :  4.25079e-05
 Reference value :  4.25221e-05
 Reference value :  4.25288e-05
 Reference value :  4.25337e-05
 Reference value :  4.25374e-05
 Reference value :  4.25433e-05
 Reference value :  4.25481e-05
 Reference value :  4.25567e-05
 Reference value :  4.25731e-05
 Reference value :  4.26363e-05
 Reference value :  4.27501e-05
 Reference value :  4.27502e-05
 Reference value :  4.27503e-05
 Reference value :  4.27511e-05
 Reference value :  4.27526e-05
 Reference value :  4.27547e-05
 Reference value :  4.27569e-05
 Reference value :  4.27617e-05
 Reference value :  4.27981e-05
 Reference value :  4.30000e-05
 Reference value :  4.30001e-05
 Reference value :  4.30002e-05
 Reference value :  4.30005e-05
 Reference value :  4.30013e-05
 Reference value :  4.30022e-05
 Reference value :  4.30040e-05
 Reference value :  4.30053e-05
 Reference value :  4.30088e-05
 Reference value :  4.30131e-05
 Reference value :  4.30164e-05
 Reference value :  4.30204e-05
 Reference value :  4.30331e-05
 Reference value :  4.31002e-05
 Reference value :  4.32501e-05
 Reference value :  4.32501e-05
 Reference value :  4.32502e-05
 Reference value :  4.32502e-05
 Reference value :  4.32504e-05
 Reference value :  4.32511e-05
 Reference value :  4.32520e-05
 Reference value :  4.32533e-05
 Reference value :  4.32546e-05
 Reference value :  4.32560e-05
 Reference value :  4.32579e-05
 Reference value :  4.32619e-05
 Reference value :  4.32819e-05
 Reference value :  4.33868e-05
 Reference value :  4.35001e-05
 Reference value :  4.35001e-05
 Reference value :  4.35002e-05
 Reference value :  4.35007e-05
 Reference value :  4.35016e-05
 Reference value :  4.35026e-05
 Reference value :  4.35037e-05
 Reference value :  4.35050e-05
 Reference value :  4.35063e-05
 Reference value :  4.35086e-05
 Reference value :  4.35121e-05
 Reference value :  4.35136e-05
 Reference value :  4.35166e-05
 Reference value :  4.35193e-05
 Reference value :  4.35221e-05
 Reference value :  4.35305e-05
 Reference value :  4.35619e-05
 Reference value :  4.36460e-05
 Reference value :  4.37501e-05
 Reference value :  4.37502e-05
 Reference value :  4.37503e-05
 Reference value :  4.37504e-05
 Reference value :  4.37510e-05
 Reference value :  4.37520e-05
 Reference value :  4.37533e-05
 Reference value :  4.37546e-05
 Reference value :  4.37569e-05
 Reference value :  4.37617e-05
 Reference value :  4.37985e-05
 Reference value :  4.40000e-05
 Reference value :  4.40001e-05
 Reference value :  4.40002e-05
 Reference value :  4.40009e-05
 Reference value :  4.40013e-05
 Reference value :  4.40022e-05
 Reference value :  4.40034e-05
 Reference value :  4.40046e-05
 Reference value :  4.40063e-05
 Reference value :  4.40083e-05
 Reference value :  4.40102e-05
 Reference value :  4.40124e-05
 Reference value :  4.40212e-05
 Reference value :  4.41664e-05
 Reference value :  4.42501e-05
 Reference value :  4.42502e-05
 Reference value :  4.42511e-05
 Reference value :  4.42526e-05
 Reference value :  4.42547e-05
 Reference value :  4.42570e-05
 Reference value :  4.42655e-05
 Reference value :  4.43846e-05
 Reference value :  4.45000e-05
 Reference value :  4.45002e-05
 Reference value :  4.45013e-05
 Reference value :  4.45028e-05
 Reference value :  4.45046e-05
 Reference value :  4.45058e-05
 Reference value :  4.45071e-05
 Reference value :  4.45106e-05
 Reference value :  4.45140e-05
 Reference value :  4.45154e-05
 Reference value :  4.45191e-05
 Reference value :  4.45285e-05
 Reference value :  4.46274e-05
 Reference value :  4.47501e-05
 Reference value :  4.47503e-05
 Reference value :  4.47511e-05
 Reference value :  4.47525e-05
 Reference value :  4.47547e-05
 Reference value :  4.47569e-05
 Reference value :  4.47706e-05
 Reference value :  4.49978e-05
 Reference value :  4.50001e-05
 Reference value :  4.50002e-05
 Reference value :  4.50005e-05
 Reference value :  4.50013e-05
 Reference value :  4.50022e-05
[...]
 Reference value :  1.66500e-04
 Reference value :  1.66500e-04
 Reference value :  1.66500e-04
 Reference value :  1.66501e-04
 Reference value :  1.66503e-04
 Reference value :  1.66505e-04
 Reference value :  1.66507e-04
 Reference value :  1.66511e-04
 Reference value :  1.66515e-04
 Reference value :  1.66519e-04
 Reference value :  1.66523e-04
 Reference value :  1.66530e-04
 Reference value :  1.66536e-04
 Reference value :  1.66563e-04
 Reference value :  1.66643e-04
 Reference value :  1.66750e-04
 Reference value :  1.66750e-04
 Reference value :  1.66752e-04
 Reference value :  1.66754e-04
 Reference value :  1.66757e-04
 Reference value :  1.66781e-04
 Reference value :  1.67000e-04
 Reference value :  1.67000e-04
 Reference value :  1.67001e-04
 Reference value :  1.67003e-04
 Reference value :  1.67005e-04
 Reference value :  1.67007e-04
 Reference value :  1.67009e-04
 Reference value :  1.67012e-04
 Reference value :  1.67050e-04
 Reference value :  1.67250e-04
 Reference value :  1.67250e-04
 Reference value :  1.67251e-04
 Reference value :  1.67253e-04
 Reference value :  1.67255e-04
 Reference value :  1.67258e-04
 Reference value :  1.67282e-04
 Reference value :  1.67500e-04
 Reference value :  1.67500e-04
 Reference value :  1.67500e-04
 Reference value :  1.67501e-04
 Reference value :  1.67503e-04
 Reference value :  1.67505e-04
 Reference value :  1.67506e-04
 Reference value :  1.67511e-04
 Reference value :  1.67515e-04
 Reference value :  1.67519e-04
 Reference value :  1.67523e-04
 Reference value :  1.67534e-04
 Reference value :  1.67540e-04
 Reference value :  1.67551e-04
 Reference value :  1.67603e-04
 Reference value :  1.67750e-04
 Reference value :  1.67751e-04
 Reference value :  1.67753e-04
 Reference value :  1.67757e-04
 Reference value :  1.67799e-04
 Reference value :  1.68000e-04
 Reference value :  1.68000e-04
 Reference value :  1.68001e-04
 Reference value :  1.68003e-04
 Reference value :  1.68006e-04
 Reference value :  1.68008e-04
 Reference value :  1.68009e-04
 Reference value :  1.68013e-04
 Reference value :  1.68066e-04
 Reference value :  1.68250e-04
 Reference value :  1.68250e-04
 Reference value :  1.68250e-04
 Reference value :  1.68251e-04
 Reference value :  1.68252e-04
 Reference value :  1.68253e-04
 Reference value :  1.68254e-04
 Reference value :  1.68255e-04
 Reference value :  1.68258e-04
 Reference value :  1.68263e-04
 Reference value :  1.68299e-04
 Reference value :  1.68500e-04
 Reference value :  1.68500e-04
 Reference value :  1.68501e-04
 Reference value :  1.68502e-04
 Reference value :  1.68503e-04
 Reference value :  1.68505e-04
 Reference value :  1.68506e-04
 Reference value :  1.68507e-04
 Reference value :  1.68510e-04
 Reference value :  1.68511e-04
 Reference value :  1.68514e-04
 Reference value :  1.68516e-04
 Reference value :  1.68519e-04
 Reference value :  1.68521e-04
 Reference value :  1.68527e-04
 Reference value :  1.68531e-04
 Reference value :  1.68537e-04
 Reference value :  1.68571e-04
 Reference value :  1.68692e-04
 Reference value :  1.68750e-04
 Reference value :  1.68750e-04
 Reference value :  1.68750e-04
 Reference value :  1.68751e-04
 Reference value :  1.68752e-04
 Reference value :  1.68754e-04
 Reference value :  1.68755e-04
 Reference value :  1.68757e-04
 Reference value :  1.68762e-04
 Reference value :  1.68799e-04
 Reference value :  1.69000e-04
 Reference value :  1.69000e-04
 Reference value :  1.69000e-04
 Reference value :  1.69000e-04
 Reference value :  1.69001e-04
 Reference value :  1.69002e-04
 Reference value :  1.69004e-04
 Reference value :  1.69005e-04
 Reference value :  1.69007e-04
 Reference value :  1.69009e-04
 Reference value :  1.69011e-04
 Reference value :  1.69014e-04
 Reference value :  1.69031e-04
 Reference value :  1.69167e-04
 Reference value :  1.69250e-04
 Reference value :  1.69250e-04
 Reference value :  1.69250e-04
 Reference value :  1.69251e-04
 Reference value :  1.69252e-04
 Reference value :  1.69254e-04
 Reference value :  1.69255e-04
 Reference value :  1.69257e-04
 Reference value :  1.69265e-04
 Reference value :  1.69331e-04
 Reference value :  1.69500e-04
 Reference value :  1.69500e-04
 Reference value :  1.69500e-04
 Reference value :  1.69500e-04
 Reference value :  1.69501e-04
 Reference value :  1.69501e-04
 Reference value :  1.69502e-04
 Reference value :  1.69504e-04
 Reference value :  1.69505e-04
 Reference value :  1.69506e-04
 Reference value :  1.69507e-04
 Reference value :  1.69509e-04
 Reference value :  1.69511e-04
 Reference value :  1.69518e-04
 Reference value :  1.69551e-04
 Reference value :  1.69750e-04
 Reference value :  1.69750e-04
 Reference value :  1.69750e-04
 Reference value :  1.69750e-04
 Reference value :  1.69751e-04
 Reference value :  1.69752e-04
 Reference value :  1.69752e-04
 Reference value :  1.69754e-04
 Reference value :  1.69757e-04
 Reference value :  1.69766e-04
 Reference value :  1.69855e-04
 Reference value :  1.70000e-04
 Reference value :  1.70000e-04
 Reference value :  1.70000e-04
 Reference value :  1.70000e-04
 Reference value :  1.70001e-04
 Reference value :  1.70002e-04
 Reference value :  1.70004e-04
 Reference value :  1.70006e-04
 Reference value :  1.70007e-04
 Reference value :  1.70015e-04
 Reference value :  1.70029e-04
 Reference value :  1.70034e-04
 Reference value :  1.70037e-04
 Reference value :  1.70043e-04
 Reference value :  1.70051e-04
 Reference value :  1.70062e-04
 Reference value :  1.70092e-04
 Reference value :  1.70246e-04
 Reference value :  1.70250e-04
 Reference value :  1.70250e-04
 Reference value :  1.70250e-04
 Reference value :  1.70251e-04
 Reference value :  1.70252e-04
 Reference value :  1.70254e-04
 Reference value :  1.70255e-04
 Reference value :  1.70257e-04
 Reference value :  1.70262e-04
 Reference value :  1.70329e-04
 Reference value :  1.70500e-04
 Reference value :  1.70500e-04
 Reference value :  1.70500e-04
 Reference value :  1.70501e-04
 Reference value :  1.70502e-04
 Reference value :  1.70504e-04
 Reference value :  1.70505e-04
 Reference value :  1.70509e-04
 Reference value :  1.70513e-04
 Reference value :  1.70516e-04
 Reference value :  1.70520e-04
 Reference value :  1.70533e-04
 Reference value :  1.70677e-04
 Reference value :  1.70750e-04
 Reference value :  1.70750e-04
 Reference value :  1.70751e-04
 Reference value :  1.70752e-04
 Reference value :  1.70754e-04
 Reference value :  1.70755e-04
 Reference value :  1.70758e-04
 Reference value :  1.70771e-04
 Reference value :  1.70887e-04
 Reference value :  1.71000e-04
 Reference value :  1.71000e-04
 Reference value :  1.71001e-04
 Reference value :  1.71001e-04
 Reference value :  1.71002e-04
 Reference value :  1.71004e-04
 Reference value :  1.71005e-04
 Reference value :  1.71006e-04
 Reference value :  1.71009e-04
 Reference value :  1.71014e-04
 Reference value :  1.71017e-04
 Reference value :  1.71019e-04
 Reference value :  1.71023e-04
 Reference value :  1.71042e-04
 Reference value :  1.71217e-04
 Reference value :  1.71250e-04
 Reference value :  1.71250e-04
 Reference value :  1.71250e-04
 Reference value :  1.71252e-04
 Reference value :  1.71253e-04
 Reference value :  1.71255e-04
 Reference value :  1.71257e-04
 Reference value :  1.71265e-04
 Reference value :  1.71298e-04
 Reference value :  1.71498e-04
 Reference value :  1.71500e-04
 Reference value :  1.71500e-04
 Reference value :  1.71500e-04
 Reference value :  1.71501e-04
 Reference value :  1.71501e-04
 Reference value :  1.71502e-04
 Reference value :  1.71504e-04
 Reference value :  1.71505e-04
 Reference value :  1.71507e-04
 Reference value :  1.71510e-04
 Reference value :  1.71514e-04
 Reference value :  1.71550e-04
 Reference value :  1.71750e-04
 Reference value :  1.71750e-04
 Reference value :  1.71750e-04
 Reference value :  1.71752e-04
 Reference value :  1.71753e-04
 Reference value :  1.71755e-04
 Reference value :  1.71757e-04
 Reference value :  1.71766e-04
 Reference value :  1.71831e-04
 Reference value :  1.72000e-04
 Reference value :  1.72000e-04
 Reference value :  1.72000e-04
 Reference value :  1.72001e-04
 Reference value :  1.72001e-04
 Reference value :  1.72003e-04
 Reference value :  1.72005e-04
 Reference value :  1.72006e-04
 Reference value :  1.72007e-04
 Reference value :  1.72011e-04
 Reference value :  1.72014e-04
 Reference value :  1.72017e-04
 Reference value :  1.72019e-04
 Reference value :  1.72023e-04
 Reference value :  1.72042e-04
 Reference value :  1.72216e-04
 Reference value :  1.72250e-04
 Reference value :  1.72250e-04
 Reference value :  1.72250e-04
 Reference value :  1.72251e-04
 Reference value :  1.72252e-04
 Reference value :  1.72254e-04
 Reference value :  1.72255e-04
 Reference value :  1.72257e-04
 Reference value :  1.72262e-04
 Reference value :  1.72298e-04
 Reference value :  1.72500e-04
 Reference value :  1.72500e-04
 Reference value :  1.72500e-04
 Reference value :  1.72500e-04
 Reference value :  1.72501e-04
 Reference value :  1.72502e-04
 Reference value :  1.72504e-04
 Reference value :  1.72505e-04
 Reference value :  1.72507e-04
 Reference value :  1.72509e-04
 Reference value :  1.72511e-04
 Reference value :  1.72516e-04
 Reference value :  1.72589e-04
 Reference value :  1.72750e-04
 Reference value :  1.72750e-04
 Reference value :  1.72751e-04
 Reference value :  1.72752e-04
 Reference value :  1.72754e-04
 Reference value :  1.72755e-04
 Reference value :  1.72757e-04
 Reference value :  1.72762e-04
 Reference value :  1.72782e-04
 Reference value :  1.72885e-04
 Reference value :  1.73000e-04
 Reference value :  1.73000e-04
 Reference value :  1.73000e-04
 Reference value :  1.73000e-04
 Reference value :  1.73001e-04
 Reference value :  1.73002e-04
 Reference value :  1.73003e-04
 Reference value :  1.73005e-04
 Reference value :  1.73006e-04
 Reference value :  1.73007e-04
 Reference value :  1.73013e-04
 Reference value :  1.73014e-04
 Reference value :  1.73017e-04
 Reference value :  1.73019e-04
 Reference value :  1.73023e-04
 Reference value :  1.73034e-04
 Reference value :  1.73053e-04
 Reference value :  1.73075e-04
 Reference value :  1.73090e-04
 Reference value :  1.73097e-04
 Reference value :  1.73112e-04
 Reference value :  1.73151e-04
 Reference value :  1.73194e-04
 Reference value :  1.73226e-04
 Reference value :  1.73250e-04
 Reference value :  1.73250e-04
 Reference value :  1.73250e-04
 Reference value :  1.73250e-04
 Reference value :  1.73250e-04
 Reference value :  1.73251e-04
 Reference value :  1.73252e-04
 Reference value :  1.73253e-04
 Reference value :  1.73254e-04
 Reference value :  1.73255e-04
 Reference value :  1.73256e-04
 Reference value :  1.73257e-04
 Reference value :  1.73260e-04
 Reference value :  1.73271e-04
 Reference value :  1.73330e-04
 Reference value :  1.73500e-04
 Reference value :  1.73500e-04
 Reference value :  1.73500e-04
 Reference value :  1.73500e-04
 Reference value :  1.73500e-04
 Reference value :  1.73501e-04
 Reference value :  1.73501e-04
 Reference value :  1.73502e-04
 Reference value :  1.73503e-04
 Reference value :  1.73505e-04
 Reference value :  1.73506e-04
 Reference value :  1.73508e-04
 Reference value :  1.73510e-04
 Reference value :  1.73512e-04
 Reference value :  1.73531e-04
 Reference value :  1.73750e-04
 Reference value :  1.73750e-04
 Reference value :  1.73750e-04
 Reference value :  1.73751e-04
 Reference value :  1.73752e-04
 Reference value :  1.73754e-04
 Reference value :  1.73755e-04
 Reference value :  1.73758e-04
 Reference value :  1.73772e-04
 Reference value :  1.73978e-04
 Reference value :  1.74000e-04
 Reference value :  1.74000e-04
 Reference value :  1.74001e-04
 Reference value :  1.74001e-04
 Reference value :  1.74002e-04
 Reference value :  1.74004e-04
 Reference value :  1.74005e-04
 Reference value :  1.74006e-04
 Reference value :  1.74009e-04
 Reference value :  1.74013e-04
 Reference value :  1.74014e-04
 Reference value :  1.74017e-04
 Reference value :  1.74019e-04
 Reference value :  1.74023e-04
 Reference value :  1.74034e-04
 Reference value :  1.74044e-04
 Reference value :  1.74058e-04
 Reference value :  1.74069e-04
 Reference value :  1.74115e-04
 Reference value :  1.74234e-04
 Reference value :  1.74250e-04
 Reference value :  1.74250e-04
 Reference value :  1.74250e-04
 Reference value :  1.74251e-04
 Reference value :  1.74252e-04
 Reference value :  1.74254e-04
 Reference value :  1.74255e-04
 Reference value :  1.74257e-04
 Reference value :  1.74262e-04
 Reference value :  1.74299e-04
 Reference value :  1.74500e-04
 Reference value :  1.74500e-04
 Reference value :  1.74500e-04
 Reference value :  1.74501e-04
 Reference value :  1.74502e-04
 Reference value :  1.74503e-04
 Reference value :  1.74504e-04
 Reference value :  1.74506e-04
 Reference value :  1.74508e-04
 Reference value :  1.74509e-04
 Reference value :  1.74513e-04
 Reference value :  1.74528e-04
 Reference value :  1.74750e-04
 Reference value :  1.74750e-04
 Reference value :  1.74750e-04
 Reference value :  1.74751e-04
 Reference value :  1.74752e-04
 Reference value :  1.74754e-04
 Reference value :  1.74755e-04
 Reference value :  1.74757e-04
 Reference value :  1.74760e-04
 Reference value :  1.74765e-04
 Reference value :  1.74784e-04
 Reference value :  1.74858e-04
 Reference value :  1.75000e-04
 Reference value :  1.75000e-04
 Reference value :  1.75000e-04
 Reference value :  1.75001e-04
 Reference value :  1.75001e-04
 Reference value :  1.75002e-04
 Reference value :  1.75004e-04
 Reference value :  1.75005e-04
 Reference value :  1.75006e-04
 Reference value :  1.75006e-04
 Reference value :  1.75008e-04
 Reference value :  1.75010e-04
 Reference value :  1.75011e-04
 Reference value :  1.75014e-04
 Reference value :  1.75016e-04
 Reference value :  1.75019e-04
 Reference value :  1.75021e-04
 Reference value :  1.75028e-04
 Reference value :  1.75034e-04
 Reference value :  1.75036e-04
 Reference value :  1.75046e-04
 Reference value :  1.75060e-04
 Reference value :  1.75087e-04
 Reference value :  1.75197e-04
 Reference value :  1.75250e-04
 Reference value :  1.75250e-04
 Reference value :  1.75250e-04
 Reference value :  1.75250e-04
 Reference value :  1.75251e-04
 Reference value :  1.75252e-04
 Reference value :  1.75253e-04
 Reference value :  1.75255e-04
 Reference value :  1.75256e-04
 Reference value :  1.75257e-04
 Reference value :  1.75260e-04
 Reference value :  1.75299e-04
 Reference value :  1.75500e-04
 Reference value :  1.75500e-04
 Reference value :  1.75500e-04
 Reference value :  1.75501e-04
 Reference value :  1.75503e-04
 Reference value :  1.75505e-04
 Reference value :  1.75507e-04
 Reference value :  1.75509e-04
 Reference value :  1.75512e-04
 Reference value :  1.75550e-04
 Reference value :  1.75750e-04
 Reference value :  1.75750e-04
 Reference value :  1.75750e-04
 Reference value :  1.75750e-04
 Reference value :  1.75752e-04
 Reference value :  1.75753e-04
 Reference value :  1.75754e-04
 Reference value :  1.75755e-04
 Reference value :  1.75757e-04
 Reference value :  1.75766e-04
 Reference value :  1.75800e-04
 Reference value :  1.75978e-04
 Reference value :  1.76000e-04
 Reference value :  1.76000e-04
 Reference value :  1.76000e-04
 Reference value :  1.76001e-04
 Reference value :  1.76002e-04
 Reference value :  1.76002e-04
 Reference value :  1.76003e-04
 Reference value :  1.76005e-04
 Reference value :  1.76006e-04
 Reference value :  1.76006e-04
 Reference value :  1.76009e-04
 Reference value :  1.76013e-04
 Reference value :  1.76014e-04
 Reference value :  1.76017e-04
 Reference value :  1.76019e-04
 Reference value :  1.76022e-04
 Reference value :  1.76029e-04
 Reference value :  1.76037e-04
 Reference value :  1.76044e-04
 Reference value :  1.76056e-04
 Reference value :  1.76084e-04
 Reference value :  1.76250e-04
 Reference value :  1.76250e-04
 Reference value :  1.76250e-04
 Reference value :  1.76251e-04
 Reference value :  1.76252e-04
 Reference value :  1.76254e-04
 Reference value :  1.76255e-04
 Reference value :  1.76257e-04
 Reference value :  1.76262e-04
 Reference value :  1.76299e-04
 Reference value :  1.76500e-04
 Reference value :  1.76500e-04
 Reference value :  1.76500e-04
 Reference value :  1.76501e-04
 Reference value :  1.76502e-04
 Reference value :  1.76503e-04
 Reference value :  1.76505e-04
 Reference value :  1.76507e-04
 Reference value :  1.76508e-04
 Reference value :  1.76509e-04
 Reference value :  1.76513e-04
 Reference value :  1.76528e-04
 Reference value :  1.76712e-04
 Reference value :  1.76750e-04
 Reference value :  1.76750e-04
 Reference value :  1.76750e-04
 Reference value :  1.76752e-04
 Reference value :  1.76753e-04
 Reference value :  1.76754e-04
 Reference value :  1.76755e-04
 Reference value :  1.76757e-04
 Reference value :  1.76760e-04
 Reference value :  1.76765e-04
 Reference value :  1.76784e-04
 Reference value :  1.76858e-04
 Reference value :  1.77000e-04
 Reference value :  1.77000e-04
 Reference value :  1.77000e-04
 Reference value :  1.77000e-04
 Reference value :  1.77001e-04
 Reference value :  1.77002e-04
 Reference value :  1.77003e-04
 Reference value :  1.77005e-04
 Reference value :  1.77006e-04
 Reference value :  1.77006e-04
 Reference value :  1.77009e-04
 Reference value :  1.77011e-04
 Reference value :  1.77014e-04
 Reference value :  1.77016e-04
 Reference value :  1.77019e-04
 Reference value :  1.77021e-04
 Reference value :  1.77024e-04
 Reference value :  1.77027e-04
 Reference value :  1.77032e-04
 Reference value :  1.77042e-04
 Reference value :  1.77057e-04
 Reference value :  1.77098e-04
 Reference value :  1.77250e-04
 Reference value :  1.77250e-04
 Reference value :  1.77250e-04
 Reference value :  1.77250e-04
 Reference value :  1.77251e-04
 Reference value :  1.77252e-04
 Reference value :  1.77253e-04
 Reference value :  1.77255e-04
 Reference value :  1.77257e-04
 Reference value :  1.77262e-04
 Reference value :  1.77298e-04
 Reference value :  1.77500e-04
 Reference value :  1.77500e-04
 Reference value :  1.77500e-04
 Reference value :  1.77500e-04
 Reference value :  1.77501e-04
 Reference value :  1.77502e-04
 Reference value :  1.77503e-04
 Reference value :  1.77505e-04
 Reference value :  1.77506e-04
 Reference value :  1.77508e-04
 Reference value :  1.77510e-04
 Reference value :  1.77514e-04
 Reference value :  1.77531e-04
 Reference value :  1.77667e-04
 Reference value :  1.77750e-04
 Reference value :  1.77750e-04
 Reference value :  1.77750e-04
 Reference value :  1.77751e-04
 Reference value :  1.77752e-04
 Reference value :  1.77753e-04
 Reference value :  1.77754e-04
 Reference value :  1.77755e-04
 Reference value :  1.77756e-04
 Reference value :  1.77758e-04
 Reference value :  1.77762e-04
 Reference value :  1.77771e-04
 Reference value :  1.77831e-04
 Reference value :  1.77978e-04
 Reference value :  1.78000e-04
 Reference value :  1.78000e-04
 Reference value :  1.78000e-04
 Reference value :  1.78000e-04
 Reference value :  1.78001e-04
 Reference value :  1.78001e-04
 Reference value :  1.78002e-04
 Reference value :  1.78003e-04
 Reference value :  1.78005e-04
 Reference value :  1.78006e-04
 Reference value :  1.78006e-04
 Reference value :  1.78008e-04
 Reference value :  1.78010e-04
 Reference value :  1.78013e-04
 Reference value :  1.78023e-04
 Reference value :  1.78085e-04
 Reference value :  1.78250e-04
 Reference value :  1.78250e-04
 Reference value :  1.78250e-04
 Reference value :  1.78250e-04
 Reference value :  1.78251e-04
 Reference value :  1.78252e-04
 Reference value :  1.78253e-04
 Reference value :  1.78255e-04
 Reference value :  1.78257e-04
 Reference value :  1.78260e-04
 Reference value :  1.78272e-04
 Reference value :  1.78316e-04
 Reference value :  1.78500e-04
No. of Data Rows : 26379
ngspice-44 done
