
Note: Compatibility modes selected: hs a


Circuit: ** sch_path: /home/audrey/cace/sar-adc-using-sky130-pdk/runs/run_2025-08-29_18-53-20/parameters/power/run_4/power_consumption.sch

option SCALE: Scale is set to 1e-06 for instance and model parameters
option SCALE: Scale is set to 1e-06 for instance and model parameters
option SCALE: Scale is set to 1e-06 for instance and model parameters
option SCALE: Scale is set to 1e-06 for instance and model parameters
Doing analysis at TEMP = 27.000000 and TNOM = 27.000000

Using KLU as Direct Linear Solver
Operating point simulation skipped by 'uic',
  now using transient initial conditions.
 Reference value :  5.00000e-12
 Reference value :  5.12839e-12
 Reference value :  5.38516e-12
 Reference value :  5.89871e-12
 Reference value :  6.92580e-12
 Reference value :  8.77776e-12
 Reference value :  1.17530e-11
 Reference value :  1.71208e-11
 Reference value :  2.77484e-11
 Reference value :  4.15095e-11
 Reference value :  6.51722e-11
 Reference value :  9.43808e-11
 Reference value :  1.46021e-10
 Reference value :  2.07888e-10
 Reference value :  3.29302e-10
 Reference value :  4.88586e-10
 Reference value :  5.00000e-10
 Reference value :  5.02624e-10
 Reference value :  5.07871e-10
 Reference value :  5.18367e-10
 Reference value :  5.39357e-10
 Reference value :  5.81338e-10
 Reference value :  6.65300e-10
 Reference value :  8.33224e-10
 Reference value :  1.16907e-09
 Reference value :  1.84077e-09
 Reference value :  2.79347e-09
 Reference value :  3.98689e-09
 Reference value :  6.05159e-09
 Reference value :  8.20919e-09
 Reference value :  1.25244e-08
 Reference value :  1.94754e-08
 Reference value :  3.01256e-08
 Reference value :  4.31388e-08
 Reference value :  5.49018e-08
 Reference value :  7.07362e-08
 Reference value :  8.79859e-08
 Reference value :  1.08550e-07
 Reference value :  1.33518e-07
 Reference value :  1.58005e-07
 Reference value :  1.79040e-07
 Reference value :  1.95837e-07
 Reference value :  2.13124e-07
 Reference value :  2.26490e-07
 Reference value :  2.37930e-07
 Reference value :  2.49669e-07
 Reference value :  2.60482e-07
 Reference value :  2.70769e-07
 Reference value :  2.81559e-07
 Reference value :  2.96709e-07
 Reference value :  3.10352e-07
 Reference value :  3.34043e-07
 Reference value :  3.61202e-07
 Reference value :  4.01130e-07
 Reference value :  4.59434e-07
 Reference value :  5.00000e-07
 Reference value :  5.06409e-07
 Reference value :  5.19227e-07
 Reference value :  5.36127e-07
 Reference value :  5.52611e-07
 Reference value :  5.67453e-07
 Reference value :  5.83227e-07
 Reference value :  6.05048e-07
 Reference value :  6.28758e-07
 Reference value :  6.59033e-07
 Reference value :  6.90500e-07
 Reference value :  7.27362e-07
 Reference value :  7.71518e-07
 Reference value :  8.23961e-07
 Reference value :  9.09754e-07
 Reference value :  1.00050e-06
 Reference value :  1.00055e-06
 Reference value :  1.00065e-06
 Reference value :  1.00085e-06
 Reference value :  1.00100e-06
 Reference value :  1.00104e-06
 Reference value :  1.00111e-06
 Reference value :  1.00126e-06
 Reference value :  1.00155e-06
 Reference value :  1.00186e-06
 Reference value :  1.00224e-06
 Reference value :  1.00284e-06
 Reference value :  1.00404e-06
 Reference value :  1.00644e-06
 Reference value :  1.01123e-06
 Reference value :  1.01767e-06
 Reference value :  1.02395e-06
 Reference value :  1.03258e-06
 Reference value :  1.04370e-06
 Reference value :  1.05991e-06
 Reference value :  1.08219e-06
 Reference value :  1.12675e-06
 Reference value :  1.15742e-06
 Reference value :  1.18283e-06
 Reference value :  1.20807e-06
 Reference value :  1.22870e-06
 Reference value :  1.24795e-06
 Reference value :  1.26549e-06
 Reference value :  1.28368e-06
 Reference value :  1.30313e-06
 Reference value :  1.32581e-06
 Reference value :  1.35367e-06
 Reference value :  1.38971e-06
 Reference value :  1.43832e-06
 Reference value :  1.50544e-06
 Reference value :  1.55518e-06
 Reference value :  1.59492e-06
 Reference value :  1.63178e-06
 Reference value :  1.65763e-06
 Reference value :  1.68522e-06
 Reference value :  1.71843e-06
 Reference value :  1.75489e-06
 Reference value :  1.80455e-06
 Reference value :  1.86353e-06
 Reference value :  1.94145e-06
 Reference value :  2.00000e-06
 Reference value :  2.00005e-06
 Reference value :  2.00015e-06
 Reference value :  2.00035e-06
 Reference value :  2.00050e-06
 Reference value :  2.00051e-06
 Reference value :  2.00053e-06
 Reference value :  2.00056e-06
 Reference value :  2.00064e-06
 Reference value :  2.00079e-06
 Reference value :  2.00108e-06
 Reference value :  2.00167e-06
 Reference value :  2.00260e-06
 Reference value :  2.00382e-06
 Reference value :  2.00580e-06
 Reference value :  2.00807e-06
 Reference value :  2.01112e-06
 Reference value :  2.01455e-06
 Reference value :  2.02141e-06
 Reference value :  2.03514e-06
 Reference value :  2.06259e-06
 Reference value :  2.10273e-06
 Reference value :  2.14303e-06
 Reference value :  2.17173e-06
 Reference value :  2.19898e-06
 Reference value :  2.22807e-06
 Reference value :  2.25870e-06
 Reference value :  2.29440e-06
 Reference value :  2.33632e-06
 Reference value :  2.38807e-06
 Reference value :  2.45370e-06
 Reference value :  2.53859e-06
 Reference value :  2.65142e-06
 Reference value :  2.80049e-06
 Reference value :  3.00050e-06
 Reference value :  3.00055e-06
 Reference value :  3.00065e-06
 Reference value :  3.00085e-06
 Reference value :  3.00100e-06
 Reference value :  3.00104e-06
 Reference value :  3.00111e-06
 Reference value :  3.00125e-06
 Reference value :  3.00154e-06
 Reference value :  3.00184e-06
 Reference value :  3.00224e-06
 Reference value :  3.00282e-06
 Reference value :  3.00398e-06
 Reference value :  3.00629e-06
 Reference value :  3.01093e-06
 Reference value :  3.02021e-06
 Reference value :  3.03761e-06
 Reference value :  3.05706e-06
 Reference value :  3.08779e-06
 Reference value :  3.12837e-06
 Reference value :  3.19617e-06
 Reference value :  3.28143e-06
 Reference value :  3.39423e-06
 Reference value :  3.39692e-06
 Reference value :  3.40231e-06
 Reference value :  3.41307e-06
 Reference value :  3.43460e-06
 Reference value :  3.46318e-06
 Reference value :  3.48743e-06
 Reference value :  3.50628e-06
 Reference value :  3.52448e-06
 Reference value :  3.54163e-06
 Reference value :  3.55810e-06
 Reference value :  3.57656e-06
 Reference value :  3.59643e-06
 Reference value :  3.62035e-06
 Reference value :  3.64957e-06
 Reference value :  3.68675e-06
 Reference value :  3.73585e-06
 Reference value :  3.79013e-06
 Reference value :  3.82770e-06
 Reference value :  3.86350e-06
 Reference value :  3.90524e-06
 Reference value :  3.94684e-06
 Reference value :  3.99308e-06
 Reference value :  4.00000e-06
 Reference value :  4.00005e-06
 Reference value :  4.00015e-06
 Reference value :  4.00035e-06
 Reference value :  4.00050e-06
 Reference value :  4.00051e-06
 Reference value :  4.00054e-06
 Reference value :  4.00059e-06
 Reference value :  4.00069e-06
 Reference value :  4.00088e-06
 Reference value :  4.00128e-06
 Reference value :  4.00207e-06
 Reference value :  4.00366e-06
 Reference value :  4.00646e-06
 Reference value :  4.00937e-06
 Reference value :  4.01520e-06
 Reference value :  4.02516e-06
 Reference value :  4.03636e-06
 Reference value :  4.04781e-06
 Reference value :  4.06463e-06
 Reference value :  4.08218e-06
 Reference value :  4.11728e-06
 Reference value :  4.17346e-06
 Reference value :  4.25489e-06
 Reference value :  4.33576e-06
 Reference value :  4.45640e-06
 Reference value :  4.61524e-06
 Reference value :  4.76351e-06
 Reference value :  4.87171e-06
 Reference value :  4.97411e-06
 Reference value :  5.00050e-06
 Reference value :  5.00055e-06
 Reference value :  5.00065e-06
 Reference value :  5.00085e-06
 Reference value :  5.00100e-06
 Reference value :  5.00103e-06
 Reference value :  5.00110e-06
 Reference value :  5.00122e-06
 Reference value :  5.00148e-06
 Reference value :  5.00177e-06
 Reference value :  5.00219e-06
 Reference value :  5.00276e-06
 Reference value :  5.00388e-06
 Reference value :  5.00613e-06
 Reference value :  5.01063e-06
 Reference value :  5.01964e-06
 Reference value :  5.03764e-06
 Reference value :  5.07365e-06
 Reference value :  5.12274e-06
 Reference value :  5.19516e-06
 Reference value :  5.29856e-06
 Reference value :  5.45266e-06
 Reference value :  5.71740e-06
 Reference value :  6.00000e-06
 Reference value :  6.00005e-06
 Reference value :  6.00015e-06
 Reference value :  6.00035e-06
 Reference value :  6.00050e-06
 Reference value :  6.00051e-06
 Reference value :  6.00053e-06
 Reference value :  6.00057e-06
 Reference value :  6.00066e-06
 Reference value :  6.00083e-06
 Reference value :  6.00116e-06
 Reference value :  6.00184e-06
 Reference value :  6.00319e-06
 Reference value :  6.00588e-06
 Reference value :  6.01128e-06
 Reference value :  6.01935e-06
 Reference value :  6.02817e-06
 Reference value :  6.04582e-06
 Reference value :  6.07895e-06
 Reference value :  6.11336e-06
 Reference value :  6.14949e-06
 Reference value :  6.22175e-06
 Reference value :  6.30832e-06
 Reference value :  6.45973e-06
 Reference value :  6.70771e-06
 Reference value :  7.00050e-06
 Reference value :  7.00055e-06
 Reference value :  7.00065e-06
 Reference value :  7.00085e-06
 Reference value :  7.00100e-06
 Reference value :  7.00103e-06
 Reference value :  7.00109e-06
 Reference value :  7.00122e-06
 Reference value :  7.00147e-06
 Reference value :  7.00177e-06
 Reference value :  7.00219e-06
 Reference value :  7.00275e-06
 Reference value :  7.00388e-06
 Reference value :  7.00615e-06
 Reference value :  7.01067e-06
 Reference value :  7.01971e-06
 Reference value :  7.03780e-06
 Reference value :  7.07398e-06
 Reference value :  7.11703e-06
 Reference value :  7.18524e-06
 Reference value :  7.27663e-06
 Reference value :  7.41754e-06
 Reference value :  7.65479e-06
 Reference value :  7.97113e-06
 Reference value :  8.00000e-06
 Reference value :  8.00005e-06
 Reference value :  8.00015e-06
 Reference value :  8.00035e-06
 Reference value :  8.00050e-06
 Reference value :  8.00051e-06
 Reference value :  8.00053e-06
 Reference value :  8.00057e-06
 Reference value :  8.00066e-06
 Reference value :  8.00083e-06
 Reference value :  8.00117e-06
 Reference value :  8.00184e-06
 Reference value :  8.00319e-06
 Reference value :  8.00590e-06
 Reference value :  8.01130e-06
 Reference value :  8.01942e-06
 Reference value :  8.02828e-06
 Reference value :  8.04601e-06
 Reference value :  8.07969e-06
 Reference value :  8.11468e-06
 Reference value :  8.15102e-06
 Reference value :  8.22370e-06
 Reference value :  8.31013e-06
 Reference value :  8.46072e-06
 Reference value :  8.70426e-06
 Reference value :  9.00050e-06
 Reference value :  9.00055e-06
 Reference value :  9.00065e-06
 Reference value :  9.00085e-06
 Reference value :  9.00100e-06
 Reference value :  9.00103e-06
 Reference value :  9.00109e-06
 Reference value :  9.00122e-06
 Reference value :  9.00147e-06
 Reference value :  9.00177e-06
 Reference value :  9.00219e-06
 Reference value :  9.00275e-06
 Reference value :  9.00388e-06
 Reference value :  9.00614e-06
 Reference value :  9.01066e-06
 Reference value :  9.01971e-06
 Reference value :  9.03779e-06
 Reference value :  9.07396e-06
 Reference value :  9.11695e-06
 Reference value :  9.18510e-06
 Reference value :  9.27636e-06
 Reference value :  9.41733e-06
 Reference value :  9.65396e-06
 Reference value :  9.97018e-06
 Reference value :  1.00000e-05
 Reference value :  1.00000e-05
 Reference value :  1.00001e-05
 Reference value :  1.00003e-05
 Reference value :  1.00005e-05
 Reference value :  1.00005e-05
 Reference value :  1.00005e-05
 Reference value :  1.00006e-05
 Reference value :  1.00007e-05
 Reference value :  1.00008e-05
 Reference value :  1.00012e-05
 Reference value :  1.00018e-05
 Reference value :  1.00032e-05
 Reference value :  1.00059e-05
 Reference value :  1.00113e-05
 Reference value :  1.00194e-05
 Reference value :  1.00283e-05
 Reference value :  1.00460e-05
 Reference value :  1.00797e-05
 Reference value :  1.01185e-05
 Reference value :  1.01536e-05
 Reference value :  1.02237e-05
 Reference value :  1.03119e-05
 Reference value :  1.04543e-05
 Reference value :  1.06911e-05
 Reference value :  1.10005e-05
 Reference value :  1.10005e-05
 Reference value :  1.10006e-05
 Reference value :  1.10008e-05
 Reference value :  1.10010e-05
 Reference value :  1.10010e-05
 Reference value :  1.10011e-05
 Reference value :  1.10012e-05
 Reference value :  1.10015e-05
 Reference value :  1.10018e-05
 Reference value :  1.10022e-05
 Reference value :  1.10028e-05
 Reference value :  1.10039e-05
 Reference value :  1.10061e-05
 Reference value :  1.10107e-05
 Reference value :  1.10197e-05
 Reference value :  1.10378e-05
 Reference value :  1.10740e-05
 Reference value :  1.11171e-05
 Reference value :  1.11853e-05
 Reference value :  1.12767e-05
 Reference value :  1.14180e-05
 Reference value :  1.16555e-05
 Reference value :  1.19720e-05
 Reference value :  1.20000e-05
 Reference value :  1.20000e-05
 Reference value :  1.20001e-05
 Reference value :  1.20003e-05
 Reference value :  1.20005e-05
 Reference value :  1.20005e-05
 Reference value :  1.20005e-05
 Reference value :  1.20006e-05
 Reference value :  1.20007e-05
 Reference value :  1.20008e-05
 Reference value :  1.20012e-05
 Reference value :  1.20018e-05
 Reference value :  1.20032e-05
 Reference value :  1.20059e-05
 Reference value :  1.20113e-05
 Reference value :  1.20194e-05
 Reference value :  1.20283e-05
 Reference value :  1.20460e-05
 Reference value :  1.20797e-05
 Reference value :  1.21185e-05
 Reference value :  1.21535e-05
 Reference value :  1.22237e-05
 Reference value :  1.23119e-05
 Reference value :  1.24543e-05
 Reference value :  1.26911e-05
 Reference value :  1.30005e-05
 Reference value :  1.30006e-05
 Reference value :  1.30007e-05
 Reference value :  1.30009e-05
 Reference value :  1.30010e-05
 Reference value :  1.30010e-05
 Reference value :  1.30011e-05
 Reference value :  1.30012e-05
 Reference value :  1.30015e-05
 Reference value :  1.30018e-05
 Reference value :  1.30022e-05
 Reference value :  1.30028e-05
 Reference value :  1.30039e-05
 Reference value :  1.30061e-05
 Reference value :  1.30107e-05
 Reference value :  1.30197e-05
 Reference value :  1.30378e-05
 Reference value :  1.30740e-05
 Reference value :  1.31171e-05
 Reference value :  1.31854e-05
 Reference value :  1.32769e-05
 Reference value :  1.34183e-05
 Reference value :  1.36561e-05
 Reference value :  1.39728e-05
 Reference value :  1.40000e-05
 Reference value :  1.40000e-05
 Reference value :  1.40002e-05
 Reference value :  1.40004e-05
 Reference value :  1.40005e-05
 Reference value :  1.40005e-05
 Reference value :  1.40005e-05
 Reference value :  1.40006e-05
 Reference value :  1.40007e-05
 Reference value :  1.40008e-05
 Reference value :  1.40012e-05
 Reference value :  1.40018e-05
 Reference value :  1.40032e-05
 Reference value :  1.40059e-05
 Reference value :  1.40113e-05
 Reference value :  1.40194e-05
 Reference value :  1.40283e-05
 Reference value :  1.40460e-05
 Reference value :  1.40797e-05
 Reference value :  1.41184e-05
 Reference value :  1.41535e-05
 Reference value :  1.42237e-05
 Reference value :  1.43119e-05
 Reference value :  1.44544e-05
 Reference value :  1.46910e-05
 Reference value :  1.50005e-05
 Reference value :  1.50005e-05
 Reference value :  1.50007e-05
 Reference value :  1.50009e-05
 Reference value :  1.50010e-05
 Reference value :  1.50010e-05
 Reference value :  1.50011e-05
 Reference value :  1.50012e-05
 Reference value :  1.50015e-05
 Reference value :  1.50018e-05
 Reference value :  1.50022e-05
 Reference value :  1.50028e-05
 Reference value :  1.50039e-05
 Reference value :  1.50061e-05
 Reference value :  1.50107e-05
 Reference value :  1.50197e-05
 Reference value :  1.50378e-05
 Reference value :  1.50740e-05
 Reference value :  1.51171e-05
 Reference value :  1.51854e-05
 Reference value :  1.52770e-05
 Reference value :  1.54184e-05
 Reference value :  1.56564e-05
 Reference value :  1.59732e-05
 Reference value :  1.60000e-05
 Reference value :  1.60000e-05
 Reference value :  1.60001e-05
 Reference value :  1.60004e-05
 Reference value :  1.60005e-05
 Reference value :  1.60005e-05
 Reference value :  1.60005e-05
 Reference value :  1.60006e-05
 Reference value :  1.60007e-05
 Reference value :  1.60008e-05
 Reference value :  1.60012e-05
 Reference value :  1.60018e-05
 Reference value :  1.60032e-05
 Reference value :  1.60059e-05
 Reference value :  1.60113e-05
 Reference value :  1.60194e-05
 Reference value :  1.60283e-05
 Reference value :  1.60460e-05
 Reference value :  1.60797e-05
 Reference value :  1.61184e-05
 Reference value :  1.61535e-05
 Reference value :  1.62237e-05
 Reference value :  1.63118e-05
 Reference value :  1.64544e-05
 Reference value :  1.66910e-05
 Reference value :  1.70005e-05
 Reference value :  1.70006e-05
 Reference value :  1.70007e-05
 Reference value :  1.70009e-05
 Reference value :  1.70010e-05
 Reference value :  1.70010e-05
 Reference value :  1.70011e-05
 Reference value :  1.70012e-05
 Reference value :  1.70015e-05
 Reference value :  1.70018e-05
 Reference value :  1.70022e-05
 Reference value :  1.70028e-05
 Reference value :  1.70039e-05
 Reference value :  1.70061e-05
 Reference value :  1.70107e-05
 Reference value :  1.70197e-05
 Reference value :  1.70378e-05
 Reference value :  1.70740e-05
 Reference value :  1.71171e-05
 Reference value :  1.71854e-05
 Reference value :  1.72770e-05
 Reference value :  1.74185e-05
 Reference value :  1.76565e-05
 Reference value :  1.79733e-05
 Reference value :  1.80000e-05
 Reference value :  1.80001e-05
 Reference value :  1.80002e-05
 Reference value :  1.80004e-05
 Reference value :  1.80005e-05
 Reference value :  1.80005e-05
 Reference value :  1.80005e-05
 Reference value :  1.80006e-05
 Reference value :  1.80007e-05
 Reference value :  1.80008e-05
 Reference value :  1.80012e-05
 Reference value :  1.80018e-05
 Reference value :  1.80032e-05
 Reference value :  1.80059e-05
 Reference value :  1.80113e-05
 Reference value :  1.80194e-05
 Reference value :  1.80283e-05
 Reference value :  1.80460e-05
 Reference value :  1.80797e-05
 Reference value :  1.81184e-05
 Reference value :  1.81535e-05
 Reference value :  1.82237e-05
 Reference value :  1.83118e-05
 Reference value :  1.84544e-05
 Reference value :  1.86910e-05
 Reference value :  1.90005e-05
 Reference value :  1.90006e-05
 Reference value :  1.90007e-05
 Reference value :  1.90009e-05
 Reference value :  1.90010e-05
 Reference value :  1.90010e-05
 Reference value :  1.90011e-05
 Reference value :  1.90012e-05
 Reference value :  1.90015e-05
 Reference value :  1.90018e-05
 Reference value :  1.90022e-05
 Reference value :  1.90028e-05
 Reference value :  1.90039e-05
 Reference value :  1.90061e-05
 Reference value :  1.90107e-05
 Reference value :  1.90197e-05
 Reference value :  1.90378e-05
 Reference value :  1.90740e-05
 Reference value :  1.91171e-05
 Reference value :  1.91854e-05
 Reference value :  1.92770e-05
 Reference value :  1.94185e-05
 Reference value :  1.96566e-05
 Reference value :  1.99734e-05
 Reference value :  2.00000e-05
 Reference value :  2.00001e-05
 Reference value :  2.00002e-05
 Reference value :  2.00004e-05
 Reference value :  2.00005e-05
 Reference value :  2.00005e-05
 Reference value :  2.00005e-05
 Reference value :  2.00006e-05
 Reference value :  2.00007e-05
 Reference value :  2.00008e-05
 Reference value :  2.00012e-05
 Reference value :  2.00018e-05
 Reference value :  2.00032e-05
 Reference value :  2.00059e-05
 Reference value :  2.00113e-05
 Reference value :  2.00194e-05
 Reference value :  2.00283e-05
 Reference value :  2.00460e-05
 Reference value :  2.00797e-05
 Reference value :  2.01184e-05
 Reference value :  2.01535e-05
 Reference value :  2.02237e-05
 Reference value :  2.03119e-05
 Reference value :  2.04544e-05
 Reference value :  2.06910e-05
 Reference value :  2.10005e-05
 Reference value :  2.10005e-05
 Reference value :  2.10006e-05
 Reference value :  2.10008e-05
 Reference value :  2.10010e-05
 Reference value :  2.10010e-05
 Reference value :  2.10011e-05
 Reference value :  2.10012e-05
 Reference value :  2.10015e-05
 Reference value :  2.10018e-05
 Reference value :  2.10022e-05
 Reference value :  2.10028e-05
 Reference value :  2.10039e-05
 Reference value :  2.10061e-05
 Reference value :  2.10107e-05
 Reference value :  2.10197e-05
 Reference value :  2.10378e-05
 Reference value :  2.10740e-05
 Reference value :  2.11171e-05
 Reference value :  2.11854e-05
 Reference value :  2.12770e-05
 Reference value :  2.14185e-05
 Reference value :  2.16566e-05
 Reference value :  2.19734e-05
 Reference value :  2.20000e-05
 Reference value :  2.20000e-05
 Reference value :  2.20001e-05
 Reference value :  2.20004e-05
 Reference value :  2.20005e-05
 Reference value :  2.20005e-05
 Reference value :  2.20005e-05
 Reference value :  2.20006e-05
 Reference value :  2.20007e-05
 Reference value :  2.20008e-05
 Reference value :  2.20012e-05
 Reference value :  2.20018e-05
 Reference value :  2.20032e-05
 Reference value :  2.20059e-05
 Reference value :  2.20113e-05
 Reference value :  2.20194e-05
 Reference value :  2.20283e-05
 Reference value :  2.20460e-05
 Reference value :  2.20797e-05
 Reference value :  2.21184e-05
 Reference value :  2.21535e-05
 Reference value :  2.22237e-05
 Reference value :  2.23119e-05
 Reference value :  2.24544e-05
 Reference value :  2.26911e-05
 Reference value :  2.30005e-05
 Reference value :  2.30005e-05
 Reference value :  2.30006e-05
 Reference value :  2.30008e-05
 Reference value :  2.30010e-05
 Reference value :  2.30010e-05
 Reference value :  2.30011e-05
 Reference value :  2.30012e-05
 Reference value :  2.30015e-05
 Reference value :  2.30018e-05
 Reference value :  2.30022e-05
 Reference value :  2.30028e-05
 Reference value :  2.30039e-05
 Reference value :  2.30061e-05
 Reference value :  2.30107e-05
 Reference value :  2.30197e-05
 Reference value :  2.30378e-05
 Reference value :  2.30740e-05
 Reference value :  2.31171e-05
 Reference value :  2.31854e-05
 Reference value :  2.32770e-05
 Reference value :  2.34185e-05
 Reference value :  2.36566e-05
 Reference value :  2.39734e-05
 Reference value :  2.40000e-05
 Reference value :  2.40001e-05
 Reference value :  2.40002e-05
 Reference value :  2.40004e-05
 Reference value :  2.40005e-05
 Reference value :  2.40005e-05
 Reference value :  2.40005e-05
 Reference value :  2.40006e-05
 Reference value :  2.40007e-05
 Reference value :  2.40008e-05
 Reference value :  2.40012e-05
 Reference value :  2.40018e-05
 Reference value :  2.40032e-05
 Reference value :  2.40059e-05
 Reference value :  2.40113e-05
 Reference value :  2.40194e-05
 Reference value :  2.40283e-05
 Reference value :  2.40460e-05
 Reference value :  2.40797e-05
 Reference value :  2.41184e-05
 Reference value :  2.41535e-05
 Reference value :  2.42237e-05
 Reference value :  2.43119e-05
 Reference value :  2.44544e-05
 Reference value :  2.46911e-05
 Reference value :  2.50005e-05
 Reference value :  2.50005e-05
 Reference value :  2.50006e-05
 Reference value :  2.50008e-05
 Reference value :  2.50010e-05
 Reference value :  2.50010e-05
 Reference value :  2.50011e-05
 Reference value :  2.50012e-05
 Reference value :  2.50015e-05
 Reference value :  2.50018e-05
 Reference value :  2.50022e-05
 Reference value :  2.50028e-05
 Reference value :  2.50039e-05
 Reference value :  2.50061e-05
 Reference value :  2.50107e-05
 Reference value :  2.50197e-05
 Reference value :  2.50378e-05
 Reference value :  2.50740e-05
 Reference value :  2.51171e-05
 Reference value :  2.51854e-05
 Reference value :  2.52770e-05
 Reference value :  2.54185e-05
 Reference value :  2.56566e-05
 Reference value :  2.59734e-05
 Reference value :  2.60000e-05
 Reference value :  2.60001e-05
 Reference value :  2.60002e-05
 Reference value :  2.60004e-05
 Reference value :  2.60005e-05
 Reference value :  2.60005e-05
 Reference value :  2.60005e-05
 Reference value :  2.60006e-05
 Reference value :  2.60007e-05
 Reference value :  2.60008e-05
 Reference value :  2.60012e-05
 Reference value :  2.60018e-05
 Reference value :  2.60032e-05
 Reference value :  2.60059e-05
 Reference value :  2.60113e-05
 Reference value :  2.60194e-05
 Reference value :  2.60283e-05
 Reference value :  2.60460e-05
 Reference value :  2.60797e-05
 Reference value :  2.61184e-05
 Reference value :  2.61535e-05
 Reference value :  2.62237e-05
 Reference value :  2.63119e-05
 Reference value :  2.64544e-05
 Reference value :  2.66911e-05
 Reference value :  2.70005e-05
 Reference value :  2.70006e-05
 Reference value :  2.70007e-05
 Reference value :  2.70009e-05
 Reference value :  2.70010e-05
 Reference value :  2.70010e-05
 Reference value :  2.70011e-05
 Reference value :  2.70012e-05
 Reference value :  2.70015e-05
 Reference value :  2.70018e-05
 Reference value :  2.70022e-05
 Reference value :  2.70028e-05
 Reference value :  2.70039e-05
 Reference value :  2.70061e-05
 Reference value :  2.70107e-05
 Reference value :  2.70197e-05
 Reference value :  2.70378e-05
 Reference value :  2.70740e-05
 Reference value :  2.71171e-05
 Reference value :  2.71854e-05
 Reference value :  2.72770e-05
 Reference value :  2.74185e-05
 Reference value :  2.76566e-05
 Reference value :  2.79734e-05
 Reference value :  2.80000e-05
 Reference value :  2.80000e-05
 Reference value :  2.80001e-05
 Reference value :  2.80004e-05
 Reference value :  2.80005e-05
 Reference value :  2.80005e-05
 Reference value :  2.80005e-05
 Reference value :  2.80006e-05
 Reference value :  2.80007e-05
 Reference value :  2.80008e-05
 Reference value :  2.80012e-05
 Reference value :  2.80018e-05
 Reference value :  2.80032e-05
 Reference value :  2.80059e-05
 Reference value :  2.80113e-05
 Reference value :  2.80194e-05
 Reference value :  2.80283e-05
 Reference value :  2.80460e-05
 Reference value :  2.80797e-05
 Reference value :  2.81184e-05
 Reference value :  2.81535e-05
 Reference value :  2.82237e-05
 Reference value :  2.83119e-05
 Reference value :  2.84544e-05
 Reference value :  2.86911e-05
 Reference value :  2.90005e-05
 Reference value :  2.90006e-05
 Reference value :  2.90007e-05
 Reference value :  2.90009e-05
 Reference value :  2.90010e-05
 Reference value :  2.90010e-05
 Reference value :  2.90011e-05
 Reference value :  2.90012e-05
 Reference value :  2.90015e-05
 Reference value :  2.90018e-05
 Reference value :  2.90022e-05
 Reference value :  2.90028e-05
 Reference value :  2.90039e-05
 Reference value :  2.90061e-05
 Reference value :  2.90107e-05
 Reference value :  2.90197e-05
 Reference value :  2.90378e-05
 Reference value :  2.90740e-05
 Reference value :  2.91171e-05
 Reference value :  2.91854e-05
 Reference value :  2.92770e-05
 Reference value :  2.94185e-05
 Reference value :  2.96566e-05
 Reference value :  2.99734e-05
 Reference value :  3.00000e-05
 Reference value :  3.00001e-05
 Reference value :  3.00002e-05
 Reference value :  3.00004e-05
 Reference value :  3.00005e-05
 Reference value :  3.00005e-05
 Reference value :  3.00005e-05
 Reference value :  3.00006e-05
 Reference value :  3.00007e-05
 Reference value :  3.00008e-05
 Reference value :  3.00012e-05
 Reference value :  3.00018e-05
 Reference value :  3.00032e-05
 Reference value :  3.00059e-05
 Reference value :  3.00113e-05
 Reference value :  3.00194e-05
 Reference value :  3.00283e-05
 Reference value :  3.00460e-05
 Reference value :  3.00797e-05
 Reference value :  3.01184e-05
 Reference value :  3.01535e-05
 Reference value :  3.02237e-05
 Reference value :  3.03119e-05
 Reference value :  3.04544e-05
 Reference value :  3.06911e-05
 Reference value :  3.10005e-05
 Reference value :  3.10005e-05
 Reference value :  3.10006e-05
 Reference value :  3.10008e-05
 Reference value :  3.10010e-05
 Reference value :  3.10010e-05
 Reference value :  3.10011e-05
 Reference value :  3.10012e-05
 Reference value :  3.10015e-05
 Reference value :  3.10018e-05
 Reference value :  3.10022e-05
 Reference value :  3.10028e-05
 Reference value :  3.10039e-05
 Reference value :  3.10061e-05
 Reference value :  3.10107e-05
 Reference value :  3.10197e-05
 Reference value :  3.10378e-05
 Reference value :  3.10740e-05
 Reference value :  3.11171e-05
 Reference value :  3.11854e-05
 Reference value :  3.12770e-05
 Reference value :  3.14185e-05
 Reference value :  3.16566e-05
 Reference value :  3.19734e-05
 Reference value :  3.20000e-05
 Reference value :  3.20000e-05
 Reference value :  3.20001e-05
 Reference value :  3.20003e-05
 Reference value :  3.20005e-05
 Reference value :  3.20005e-05
 Reference value :  3.20005e-05
 Reference value :  3.20006e-05
 Reference value :  3.20007e-05
 Reference value :  3.20008e-05
 Reference value :  3.20012e-05
 Reference value :  3.20018e-05
 Reference value :  3.20032e-05
 Reference value :  3.20059e-05
 Reference value :  3.20113e-05
 Reference value :  3.20194e-05
 Reference value :  3.20283e-05
 Reference value :  3.20460e-05
 Reference value :  3.20797e-05
 Reference value :  3.21185e-05
 Reference value :  3.21535e-05
 Reference value :  3.22237e-05
 Reference value :  3.23119e-05
 Reference value :  3.24544e-05
 Reference value :  3.26911e-05
 Reference value :  3.30005e-05
 Reference value :  3.30006e-05
 Reference value :  3.30007e-05
 Reference value :  3.30009e-05
 Reference value :  3.30010e-05
 Reference value :  3.30010e-05
 Reference value :  3.30011e-05
 Reference value :  3.30012e-05
 Reference value :  3.30015e-05
 Reference value :  3.30018e-05
 Reference value :  3.30022e-05
 Reference value :  3.30028e-05
 Reference value :  3.30039e-05
 Reference value :  3.30061e-05
 Reference value :  3.30107e-05
 Reference value :  3.30197e-05
 Reference value :  3.30378e-05
 Reference value :  3.30740e-05
 Reference value :  3.31171e-05
 Reference value :  3.31854e-05
 Reference value :  3.32770e-05
 Reference value :  3.34185e-05
 Reference value :  3.36566e-05
 Reference value :  3.39733e-05
 Reference value :  3.40000e-05
No. of Data Rows : 934
ngspice-44 done
