
Note: Compatibility modes selected: hs a


Circuit: ** sch_path: /home/ece/cace/sar-adc-using-sky130-pdk/runs/run_2025-09-12_21-07-57/parameters/dnl/run_4/sar_output_dnl.sch

option SCALE: Scale is set to 1e-06 for instance and model parameters
option SCALE: Scale is set to 1e-06 for instance and model parameters
option SCALE: Scale is set to 1e-06 for instance and model parameters
option SCALE: Scale is set to 1e-06 for instance and model parameters
Doing analysis at TEMP = 27.000000 and TNOM = 27.000000

Using KLU as Direct Linear Solver
Operating point simulation skipped by 'uic',
  now using transient initial conditions.
 Reference value :  1.00000e-12
 Reference value :  1.19600e-12
 Reference value :  3.31875e-12
 Reference value :  1.38297e-11
 Reference value :  1.00000e-10
 Reference value :  1.34233e-10
 Reference value :  6.65544e-10
 Reference value :  1.93168e-09
 Reference value :  4.22843e-09
 Reference value :  5.99685e-09
 Reference value :  7.13506e-09
 Reference value :  9.21093e-09
 Reference value :  1.11209e-08
 Reference value :  1.55844e-08
 Reference value :  2.26335e-08
 Reference value :  3.42691e-08
 Reference value :  9.62349e-08
 Reference value :  2.50110e-07
 Reference value :  2.50200e-07
 Reference value :  2.50253e-07
 Reference value :  2.50511e-07
 Reference value :  2.51621e-07
 Reference value :  2.52657e-07
 Reference value :  2.53899e-07
 Reference value :  2.55750e-07
 Reference value :  2.58909e-07
 Reference value :  2.79147e-07
 Reference value :  5.00000e-07
 Reference value :  5.00070e-07
 Reference value :  5.00124e-07
 Reference value :  5.00337e-07
 Reference value :  5.01286e-07
 Reference value :  5.03310e-07
 Reference value :  5.06732e-07
 Reference value :  5.07963e-07
 Reference value :  5.12028e-07
 Reference value :  5.15240e-07
 Reference value :  5.19441e-07
 Reference value :  5.31622e-07
 Reference value :  5.80334e-07
 Reference value :  7.50100e-07
 Reference value :  7.50170e-07
 Reference value :  7.50224e-07
 Reference value :  7.50444e-07
 Reference value :  7.50948e-07
 Reference value :  7.51387e-07
 Reference value :  7.52367e-07
 Reference value :  7.53776e-07
 Reference value :  7.54419e-07
 Reference value :  7.55799e-07
 Reference value :  7.56748e-07
 Reference value :  7.58440e-07
 Reference value :  7.60804e-07
 Reference value :  7.64935e-07
 Reference value :  7.89520e-07
 Reference value :  9.54451e-07
 Reference value :  1.00001e-06
 Reference value :  1.00007e-06
 Reference value :  1.00011e-06
 Reference value :  1.00016e-06
 Reference value :  1.00034e-06
 Reference value :  1.00083e-06
 Reference value :  1.00128e-06
 Reference value :  1.00219e-06
 Reference value :  1.00329e-06
 Reference value :  1.00442e-06
 Reference value :  1.00557e-06
 Reference value :  1.00670e-06
 Reference value :  1.00973e-06
 Reference value :  1.01069e-06
 Reference value :  1.01172e-06
 Reference value :  1.01368e-06
 Reference value :  1.01547e-06
 Reference value :  1.01747e-06
 Reference value :  1.01965e-06
 Reference value :  1.02666e-06
 Reference value :  1.05684e-06
 Reference value :  1.25010e-06
 Reference value :  1.25017e-06
 Reference value :  1.25026e-06
 Reference value :  1.25068e-06
 Reference value :  1.25138e-06
 Reference value :  1.25303e-06
 Reference value :  1.25438e-06
 Reference value :  1.25570e-06
 Reference value :  1.25918e-06
 Reference value :  1.28467e-06
 Reference value :  1.50000e-06
 Reference value :  1.50007e-06
 Reference value :  1.50012e-06
 Reference value :  1.50034e-06
 Reference value :  1.50129e-06
 Reference value :  1.50218e-06
 Reference value :  1.50395e-06
 Reference value :  1.50553e-06
 Reference value :  1.50734e-06
 Reference value :  1.50903e-06
 Reference value :  1.51242e-06
 Reference value :  1.54746e-06
 Reference value :  1.75011e-06
 Reference value :  1.75020e-06
 Reference value :  1.75032e-06
 Reference value :  1.75094e-06
 Reference value :  1.75185e-06
 Reference value :  1.75377e-06
 Reference value :  1.75506e-06
 Reference value :  1.75759e-06
 Reference value :  1.75934e-06
 Reference value :  1.76840e-06
 Reference value :  1.85098e-06
 Reference value :  2.00003e-06
 Reference value :  2.00011e-06
 Reference value :  2.00022e-06
 Reference value :  2.00128e-06
 Reference value :  2.00219e-06
 Reference value :  2.00329e-06
 Reference value :  2.00441e-06
 Reference value :  2.00556e-06
 Reference value :  2.00670e-06
 Reference value :  2.00973e-06
 Reference value :  2.01173e-06
 Reference value :  2.01369e-06
 Reference value :  2.01547e-06
 Reference value :  2.01746e-06
 Reference value :  2.01963e-06
 Reference value :  2.02306e-06
 Reference value :  2.04079e-06
 Reference value :  2.12117e-06
 Reference value :  2.25010e-06
 Reference value :  2.25017e-06
 Reference value :  2.25022e-06
 Reference value :  2.25045e-06
 Reference value :  2.25095e-06
 Reference value :  2.25185e-06
 Reference value :  2.25302e-06
 Reference value :  2.25437e-06
 Reference value :  2.25569e-06
 Reference value :  2.25915e-06
 Reference value :  2.30569e-06
 Reference value :  2.50001e-06
 Reference value :  2.50010e-06
 Reference value :  2.50016e-06
 Reference value :  2.50050e-06
 Reference value :  2.50129e-06
 Reference value :  2.50218e-06
 Reference value :  2.50395e-06
 Reference value :  2.50473e-06
 Reference value :  2.50657e-06
 Reference value :  2.50734e-06
 Reference value :  2.50903e-06
 Reference value :  2.51241e-06
 Reference value :  2.54755e-06
 Reference value :  2.75011e-06
 Reference value :  2.75020e-06
 Reference value :  2.75032e-06
 Reference value :  2.75094e-06
 Reference value :  2.75185e-06
 Reference value :  2.75376e-06
 Reference value :  2.75577e-06
 Reference value :  2.75758e-06
 Reference value :  2.75934e-06
 Reference value :  2.76488e-06
 Reference value :  2.80817e-06
 Reference value :  3.00001e-06
 Reference value :  3.00010e-06
 Reference value :  3.00016e-06
 Reference value :  3.00034e-06
 Reference value :  3.00128e-06
 Reference value :  3.00219e-06
 Reference value :  3.00329e-06
 Reference value :  3.00441e-06
 Reference value :  3.00556e-06
 Reference value :  3.00609e-06
 Reference value :  3.00756e-06
 Reference value :  3.01071e-06
 Reference value :  3.01285e-06
 Reference value :  3.01450e-06
 Reference value :  3.01645e-06
 Reference value :  3.01852e-06
 Reference value :  3.02128e-06
 Reference value :  3.03195e-06
 Reference value :  3.08029e-06
 Reference value :  3.16632e-06
 Reference value :  3.25010e-06
 Reference value :  3.25017e-06
 Reference value :  3.25026e-06
 Reference value :  3.25069e-06
 Reference value :  3.25138e-06
 Reference value :  3.25302e-06
 Reference value :  3.25437e-06
 Reference value :  3.25663e-06
 Reference value :  3.26537e-06
 Reference value :  3.34115e-06
 Reference value :  3.50003e-06
 Reference value :  3.50011e-06
 Reference value :  3.50022e-06
 Reference value :  3.50083e-06
 Reference value :  3.50176e-06
 Reference value :  3.50265e-06
 Reference value :  3.50395e-06
 Reference value :  3.50553e-06
 Reference value :  3.50734e-06
 Reference value :  3.50903e-06
 Reference value :  3.51241e-06
 Reference value :  3.54759e-06
 Reference value :  3.75011e-06
 Reference value :  3.75020e-06
 Reference value :  3.75026e-06
 Reference value :  3.75068e-06
 Reference value :  3.75185e-06
 Reference value :  3.75376e-06
 Reference value :  3.75576e-06
 Reference value :  3.75843e-06
 Reference value :  3.76486e-06
 Reference value :  3.84840e-06
 Reference value :  4.00003e-06
 Reference value :  4.00012e-06
 Reference value :  4.00034e-06
 Reference value :  4.00128e-06
 Reference value :  4.00219e-06
 Reference value :  4.00329e-06
 Reference value :  4.00441e-06
 Reference value :  4.00556e-06
 Reference value :  4.00756e-06
 Reference value :  4.01071e-06
 Reference value :  4.01285e-06
 Reference value :  4.01545e-06
 Reference value :  4.01852e-06
 Reference value :  4.02304e-06
 Reference value :  4.05082e-06
 Reference value :  4.08960e-06
 Reference value :  4.16767e-06
 Reference value :  4.23582e-06
 Reference value :  4.25013e-06
 Reference value :  4.25021e-06
 Reference value :  4.25032e-06
 Reference value :  4.25094e-06
 Reference value :  4.25185e-06
 Reference value :  4.25302e-06
 Reference value :  4.25437e-06
 Reference value :  4.25663e-06
 Reference value :  4.26140e-06
 Reference value :  4.28386e-06
 Reference value :  4.50000e-06
 Reference value :  4.50007e-06
 Reference value :  4.50012e-06
 Reference value :  4.50022e-06
 Reference value :  4.50050e-06
 Reference value :  4.50129e-06
 Reference value :  4.50218e-06
 Reference value :  4.50332e-06
 Reference value :  4.50395e-06
 Reference value :  4.50473e-06
 Reference value :  4.50657e-06
 Reference value :  4.50734e-06
 Reference value :  4.50903e-06
 Reference value :  4.51119e-06
 Reference value :  4.51956e-06
 Reference value :  4.54762e-06
 Reference value :  4.75010e-06
 Reference value :  4.75017e-06
 Reference value :  4.75022e-06
 Reference value :  4.75044e-06
 Reference value :  4.75138e-06
 Reference value :  4.75235e-06
 Reference value :  4.75376e-06
 Reference value :  4.75505e-06
 Reference value :  4.75670e-06
 Reference value :  4.75842e-06
 Reference value :  4.76074e-06
 Reference value :  4.76831e-06
 Reference value :  4.80753e-06
 Reference value :  5.00000e-06
 Reference value :  5.00003e-06
 Reference value :  5.00011e-06
 Reference value :  5.00022e-06
 Reference value :  5.00083e-06
 Reference value :  5.00176e-06
 Reference value :  5.00268e-06
 Reference value :  5.00391e-06
 Reference value :  5.00441e-06
 Reference value :  5.00556e-06
 Reference value :  5.00609e-06
 Reference value :  5.00756e-06
 Reference value :  5.01071e-06
 Reference value :  5.01285e-06
 Reference value :  5.01368e-06
 Reference value :  5.01555e-06
 Reference value :  5.01757e-06
 Reference value :  5.01995e-06
 Reference value :  5.02372e-06
 Reference value :  5.03295e-06
 Reference value :  5.04604e-06
 Reference value :  5.05149e-06
 Reference value :  5.05622e-06
 Reference value :  5.06534e-06
 Reference value :  5.08242e-06
 Reference value :  5.15349e-06
 Reference value :  5.25011e-06
 Reference value :  5.25020e-06
 Reference value :  5.25026e-06
 Reference value :  5.25068e-06
 Reference value :  5.25138e-06
 Reference value :  5.25302e-06
 Reference value :  5.25438e-06
 Reference value :  5.25569e-06
 Reference value :  5.25915e-06
 Reference value :  5.30538e-06
 Reference value :  5.50001e-06
 Reference value :  5.50007e-06
 Reference value :  5.50016e-06
 Reference value :  5.50083e-06
 Reference value :  5.50176e-06
 Reference value :  5.50219e-06
 Reference value :  5.50323e-06
 Reference value :  5.50442e-06
 Reference value :  5.50616e-06
 Reference value :  5.50818e-06
 Reference value :  5.51036e-06
 Reference value :  5.51158e-06
 Reference value :  5.52037e-06
 Reference value :  5.54484e-06
 Reference value :  5.64270e-06
 Reference value :  5.75011e-06
 Reference value :  5.75017e-06
 Reference value :  5.75021e-06
 Reference value :  5.75032e-06
 Reference value :  5.75068e-06
 Reference value :  5.75138e-06
 Reference value :  5.75235e-06
 Reference value :  5.75377e-06
 Reference value :  5.75505e-06
 Reference value :  5.75671e-06
 Reference value :  5.76142e-06
 Reference value :  5.78401e-06
 Reference value :  5.90653e-06
 Reference value :  6.00003e-06
 Reference value :  6.00012e-06
 Reference value :  6.00050e-06
 Reference value :  6.00128e-06
 Reference value :  6.00219e-06
 Reference value :  6.00329e-06
 Reference value :  6.00440e-06
 Reference value :  6.00557e-06
 Reference value :  6.00609e-06
 Reference value :  6.00757e-06
 Reference value :  6.00999e-06
 Reference value :  6.01280e-06
 Reference value :  6.01492e-06
 Reference value :  6.01707e-06
 Reference value :  6.02105e-06
 Reference value :  6.04087e-06
 Reference value :  6.08475e-06
 Reference value :  6.12443e-06
 Reference value :  6.15227e-06
 Reference value :  6.18703e-06
 Reference value :  6.25010e-06
 Reference value :  6.25017e-06
 Reference value :  6.25022e-06
 Reference value :  6.25045e-06
 Reference value :  6.25138e-06
 Reference value :  6.25235e-06
 Reference value :  6.25372e-06
 Reference value :  6.25576e-06
 Reference value :  6.25784e-06
 Reference value :  6.27282e-06
 Reference value :  6.33874e-06
 Reference value :  6.50001e-06
 Reference value :  6.50010e-06
 Reference value :  6.50016e-06
 Reference value :  6.50050e-06
 Reference value :  6.50129e-06
 Reference value :  6.50218e-06
 Reference value :  6.50395e-06
 Reference value :  6.50554e-06
 Reference value :  6.50735e-06
 Reference value :  6.50903e-06
 Reference value :  6.51119e-06
 Reference value :  6.51960e-06
 Reference value :  6.65825e-06
 Reference value :  6.75013e-06
 Reference value :  6.75021e-06
 Reference value :  6.75032e-06
 Reference value :  6.75068e-06
 Reference value :  6.75138e-06
 Reference value :  6.75235e-06
 Reference value :  6.75376e-06
 Reference value :  6.75504e-06
 Reference value :  6.75670e-06
 Reference value :  6.75842e-06
 Reference value :  6.76214e-06
 Reference value :  6.78731e-06
 Reference value :  7.00000e-06
 Reference value :  7.00007e-06
 Reference value :  7.00012e-06
 Reference value :  7.00034e-06
 Reference value :  7.00128e-06
 Reference value :  7.00219e-06
 Reference value :  7.00329e-06
 Reference value :  7.00441e-06
 Reference value :  7.00556e-06
 Reference value :  7.00670e-06
 Reference value :  7.00843e-06
 Reference value :  7.01072e-06
 Reference value :  7.01286e-06
 Reference value :  7.01368e-06
 Reference value :  7.01554e-06
 Reference value :  7.01756e-06
 Reference value :  7.01995e-06
 Reference value :  7.02369e-06
 Reference value :  7.03637e-06
 Reference value :  7.10286e-06
 Reference value :  7.25011e-06
 Reference value :  7.25020e-06
 Reference value :  7.25026e-06
 Reference value :  7.25068e-06
 Reference value :  7.25138e-06
 Reference value :  7.25302e-06
 Reference value :  7.25436e-06
 Reference value :  7.25567e-06
 Reference value :  7.25912e-06
 Reference value :  7.28363e-06
 Reference value :  7.50000e-06
 Reference value :  7.50007e-06
 Reference value :  7.50012e-06
 Reference value :  7.50034e-06
 Reference value :  7.50129e-06
 Reference value :  7.50218e-06
 Reference value :  7.50395e-06
 Reference value :  7.50554e-06
 Reference value :  7.50735e-06
 Reference value :  7.50904e-06
 Reference value :  7.51119e-06
 Reference value :  7.52880e-06
 Reference value :  7.62098e-06
 Reference value :  7.67144e-06
 Reference value :  7.70546e-06
 Reference value :  7.75011e-06
 Reference value :  7.75020e-06
 Reference value :  7.75026e-06
 Reference value :  7.75045e-06
 Reference value :  7.75094e-06
 Reference value :  7.75138e-06
 Reference value :  7.75235e-06
 Reference value :  7.75375e-06
 Reference value :  7.75505e-06
 Reference value :  7.75669e-06
 Reference value :  7.75921e-06
 Reference value :  7.77023e-06
 Reference value :  7.82350e-06
 Reference value :  8.00000e-06
 Reference value :  8.00007e-06
 Reference value :  8.00012e-06
 Reference value :  8.00034e-06
 Reference value :  8.00128e-06
 Reference value :  8.00219e-06
 Reference value :  8.00329e-06
 Reference value :  8.00441e-06
 Reference value :  8.00557e-06
 Reference value :  8.00610e-06
 Reference value :  8.00756e-06
 Reference value :  8.00927e-06
 Reference value :  8.01135e-06
 Reference value :  8.02665e-06
 Reference value :  8.14905e-06
 Reference value :  8.25013e-06
 Reference value :  8.25021e-06
 Reference value :  8.25032e-06
 Reference value :  8.25070e-06
 Reference value :  8.25139e-06
 Reference value :  8.25237e-06
 Reference value :  8.25387e-06
 Reference value :  8.25565e-06
 Reference value :  8.25789e-06
 Reference value :  8.26492e-06
 Reference value :  8.29640e-06
 Reference value :  8.49661e-06
 Reference value :  8.50000e-06
 Reference value :  8.50000e-06
 Reference value :  8.50000e-06
 Reference value :  8.50001e-06
 Reference value :  8.50004e-06
 Reference value :  8.50010e-06
 Reference value :  8.50014e-06
 Reference value :  8.50027e-06
 Reference value :  8.50119e-06
 Reference value :  8.50170e-06
 Reference value :  8.50268e-06
 Reference value :  8.50400e-06
 Reference value :  8.50540e-06
 Reference value :  8.50682e-06
 Reference value :  8.51088e-06
 Reference value :  8.52084e-06
 Reference value :  8.52697e-06
 Reference value :  8.53142e-06
 Reference value :  8.53784e-06
 Reference value :  8.54135e-06
 Reference value :  8.54352e-06
 Reference value :  8.54531e-06
 Reference value :  8.54851e-06
 Reference value :  8.55226e-06
 Reference value :  8.55742e-06
 Reference value :  8.57263e-06
 Reference value :  8.61954e-06
 Reference value :  8.75011e-06
 Reference value :  8.75020e-06
 Reference value :  8.75026e-06
 Reference value :  8.75044e-06
 Reference value :  8.75094e-06
 Reference value :  8.75138e-06
 Reference value :  8.75236e-06
 Reference value :  8.75372e-06
 Reference value :  8.75575e-06
 Reference value :  8.75934e-06
 Reference value :  8.77275e-06
 Reference value :  8.83805e-06
 Reference value :  9.00003e-06
 Reference value :  9.00011e-06
 Reference value :  9.00022e-06
 Reference value :  9.00083e-06
 Reference value :  9.00176e-06
 Reference value :  9.00265e-06
 Reference value :  9.00483e-06
 Reference value :  9.00674e-06
 Reference value :  9.00802e-06
 Reference value :  9.01072e-06
 Reference value :  9.01372e-06
 Reference value :  9.01514e-06
 Reference value :  9.01915e-06
 Reference value :  9.03817e-06
 Reference value :  9.19991e-06
 Reference value :  9.25017e-06
 Reference value :  9.25032e-06
 Reference value :  9.25094e-06
 Reference value :  9.25185e-06
 Reference value :  9.25376e-06
 Reference value :  9.25439e-06
 Reference value :  9.25662e-06
 Reference value :  9.25816e-06
 Reference value :  9.26177e-06
 Reference value :  9.27667e-06
 Reference value :  9.34568e-06
 Reference value :  9.50001e-06
 Reference value :  9.50010e-06
 Reference value :  9.50022e-06
 Reference value :  9.50083e-06
 Reference value :  9.50176e-06
 Reference value :  9.50219e-06
 Reference value :  9.50329e-06
 Reference value :  9.50441e-06
 Reference value :  9.50556e-06
 Reference value :  9.50670e-06
 Reference value :  9.50973e-06
 Reference value :  9.51070e-06
 Reference value :  9.51284e-06
 Reference value :  9.51452e-06
 Reference value :  9.51646e-06
 Reference value :  9.51856e-06
 Reference value :  9.52317e-06
 Reference value :  9.58480e-06
 Reference value :  9.75011e-06
 Reference value :  9.75021e-06
 Reference value :  9.75068e-06
 Reference value :  9.75185e-06
 Reference value :  9.75375e-06
 Reference value :  9.75501e-06
 Reference value :  9.75911e-06
 Reference value :  9.80421e-06
 Reference value :  1.00000e-05
 Reference value :  1.00001e-05
 Reference value :  1.00003e-05
 Reference value :  1.00013e-05
 Reference value :  1.00022e-05
 Reference value :  1.00039e-05
 Reference value :  1.00055e-05
 Reference value :  1.00073e-05
 Reference value :  1.00090e-05
 Reference value :  1.00148e-05
 Reference value :  1.01598e-05
 Reference value :  1.02501e-05
 Reference value :  1.02502e-05
 Reference value :  1.02507e-05
 Reference value :  1.02514e-05
 Reference value :  1.02524e-05
 Reference value :  1.02538e-05
 Reference value :  1.02550e-05
 Reference value :  1.02576e-05
 Reference value :  1.02607e-05
 Reference value :  1.02874e-05
 Reference value :  1.05000e-05
 Reference value :  1.05001e-05
 Reference value :  1.05001e-05
 Reference value :  1.05003e-05
 Reference value :  1.05013e-05
 Reference value :  1.05022e-05
 Reference value :  1.05033e-05
 Reference value :  1.05044e-05
 Reference value :  1.05056e-05
 Reference value :  1.05067e-05
 Reference value :  1.05084e-05
 Reference value :  1.05107e-05
 Reference value :  1.05128e-05
 Reference value :  1.05145e-05
 Reference value :  1.05165e-05
 Reference value :  1.05197e-05
 Reference value :  1.05267e-05
 Reference value :  1.05837e-05
 Reference value :  1.07501e-05
 Reference value :  1.07502e-05
 Reference value :  1.07502e-05
 Reference value :  1.07504e-05
 Reference value :  1.07514e-05
 Reference value :  1.07524e-05
 Reference value :  1.07538e-05
 Reference value :  1.07550e-05
 Reference value :  1.07566e-05
 Reference value :  1.07614e-05
 Reference value :  1.08042e-05
 Reference value :  1.10000e-05
 Reference value :  1.10001e-05
 Reference value :  1.10002e-05
 Reference value :  1.10005e-05
 Reference value :  1.10013e-05
 Reference value :  1.10022e-05
 Reference value :  1.10039e-05
 Reference value :  1.10055e-05
 Reference value :  1.10073e-05
 Reference value :  1.10090e-05
 Reference value :  1.10124e-05
 Reference value :  1.10476e-05
 Reference value :  1.12501e-05
 Reference value :  1.12502e-05
 Reference value :  1.12503e-05
 Reference value :  1.12507e-05
 Reference value :  1.12514e-05
 Reference value :  1.12530e-05
 Reference value :  1.12544e-05
 Reference value :  1.12567e-05
 Reference value :  1.12584e-05
 Reference value :  1.12607e-05
 Reference value :  1.12683e-05
 Reference value :  1.13077e-05
 Reference value :  1.15000e-05
 Reference value :  1.15001e-05
 Reference value :  1.15001e-05
 Reference value :  1.15003e-05
 Reference value :  1.15008e-05
 Reference value :  1.15018e-05
 Reference value :  1.15022e-05
 Reference value :  1.15033e-05
 Reference value :  1.15044e-05
 Reference value :  1.15056e-05
 Reference value :  1.15067e-05
 Reference value :  1.15107e-05
 Reference value :  1.15137e-05
 Reference value :  1.15175e-05
 Reference value :  1.15213e-05
 Reference value :  1.15575e-05
 Reference value :  1.16668e-05
 Reference value :  1.17501e-05
 Reference value :  1.17502e-05
 Reference value :  1.17503e-05
 Reference value :  1.17509e-05
 Reference value :  1.17518e-05
 Reference value :  1.17538e-05
 Reference value :  1.17550e-05
 Reference value :  1.17576e-05
 Reference value :  1.17723e-05
 Reference value :  1.18391e-05
 Reference value :  1.20000e-05
 Reference value :  1.20001e-05
 Reference value :  1.20002e-05
 Reference value :  1.20008e-05
 Reference value :  1.20018e-05
 Reference value :  1.20026e-05
 Reference value :  1.20039e-05
 Reference value :  1.20055e-05
 Reference value :  1.20073e-05
 Reference value :  1.20090e-05
 Reference value :  1.20124e-05
 Reference value :  1.20477e-05
 Reference value :  1.22501e-05
 Reference value :  1.22502e-05
 Reference value :  1.22503e-05
 Reference value :  1.22507e-05
 Reference value :  1.22514e-05
 Reference value :  1.22530e-05
 Reference value :  1.22544e-05
 Reference value :  1.22567e-05
 Reference value :  1.22584e-05
 Reference value :  1.22621e-05
 Reference value :  1.22874e-05
 Reference value :  1.25000e-05
 Reference value :  1.25001e-05
 Reference value :  1.25001e-05
 Reference value :  1.25003e-05
 Reference value :  1.25013e-05
 Reference value :  1.25022e-05
 Reference value :  1.25039e-05
 Reference value :  1.25050e-05
 Reference value :  1.25056e-05
 Reference value :  1.25067e-05
 Reference value :  1.25097e-05
 Reference value :  1.25117e-05
 Reference value :  1.25137e-05
 Reference value :  1.25155e-05
 Reference value :  1.25187e-05
 Reference value :  1.25232e-05
 Reference value :  1.25412e-05
 Reference value :  1.25792e-05
 Reference value :  1.26080e-05
 Reference value :  1.27184e-05
 Reference value :  1.27501e-05
 Reference value :  1.27502e-05
 Reference value :  1.27504e-05
 Reference value :  1.27514e-05
 Reference value :  1.27530e-05
 Reference value :  1.27544e-05
 Reference value :  1.27566e-05
 Reference value :  1.27614e-05
 Reference value :  1.28042e-05
 Reference value :  1.30000e-05
 Reference value :  1.30001e-05
 Reference value :  1.30002e-05
 Reference value :  1.30005e-05
 Reference value :  1.30013e-05
 Reference value :  1.30022e-05
 Reference value :  1.30039e-05
 Reference value :  1.30055e-05
 Reference value :  1.30073e-05
 Reference value :  1.30090e-05
 Reference value :  1.30124e-05
 Reference value :  1.30852e-05
 Reference value :  1.32501e-05
 Reference value :  1.32502e-05
 Reference value :  1.32503e-05
 Reference value :  1.32504e-05
 Reference value :  1.32509e-05
 Reference value :  1.32518e-05
 Reference value :  1.32530e-05
 Reference value :  1.32544e-05
 Reference value :  1.32558e-05
 Reference value :  1.32576e-05
 Reference value :  1.32593e-05
 Reference value :  1.32648e-05
 Reference value :  1.32873e-05
 Reference value :  1.34240e-05
 Reference value :  1.35000e-05
 Reference value :  1.35001e-05
 Reference value :  1.35002e-05
 Reference value :  1.35003e-05
 Reference value :  1.35008e-05
 Reference value :  1.35013e-05
 Reference value :  1.35022e-05
 Reference value :  1.35033e-05
 Reference value :  1.35044e-05
 Reference value :  1.35056e-05
 Reference value :  1.35061e-05
 Reference value :  1.35076e-05
 Reference value :  1.35097e-05
 Reference value :  1.35107e-05
 Reference value :  1.35129e-05
 Reference value :  1.35137e-05
 Reference value :  1.35155e-05
 Reference value :  1.35175e-05
 Reference value :  1.35197e-05
 Reference value :  1.35260e-05
 Reference value :  1.35359e-05
 Reference value :  1.35511e-05
 Reference value :  1.35581e-05
 Reference value :  1.35670e-05
 Reference value :  1.35928e-05
 Reference value :  1.37501e-05
 Reference value :  1.37502e-05
 Reference value :  1.37502e-05
 Reference value :  1.37504e-05
 Reference value :  1.37514e-05
 Reference value :  1.37524e-05
 Reference value :  1.37538e-05
 Reference value :  1.37544e-05
 Reference value :  1.37557e-05
 Reference value :  1.37576e-05
 Reference value :  1.37654e-05
 Reference value :  1.38049e-05
 Reference value :  1.40000e-05
 Reference value :  1.40000e-05
 Reference value :  1.40001e-05
 Reference value :  1.40002e-05
 Reference value :  1.40005e-05
 Reference value :  1.40013e-05
 Reference value :  1.40022e-05
 Reference value :  1.40032e-05
 Reference value :  1.40044e-05
 Reference value :  1.40062e-05
 Reference value :  1.40082e-05
 Reference value :  1.40104e-05
 Reference value :  1.40129e-05
 Reference value :  1.40287e-05
 Reference value :  1.41449e-05
 Reference value :  1.42501e-05
 Reference value :  1.42502e-05
 Reference value :  1.42502e-05
 Reference value :  1.42504e-05
 Reference value :  1.42509e-05
 Reference value :  1.42514e-05
 Reference value :  1.42524e-05
 Reference value :  1.42538e-05
 Reference value :  1.42551e-05
 Reference value :  1.42576e-05
 Reference value :  1.42725e-05
 Reference value :  1.44052e-05
 Reference value :  1.45000e-05
 Reference value :  1.45001e-05
 Reference value :  1.45002e-05
 Reference value :  1.45008e-05
 Reference value :  1.45018e-05
 Reference value :  1.45027e-05
 Reference value :  1.45039e-05
 Reference value :  1.45044e-05
 Reference value :  1.45056e-05
 Reference value :  1.45067e-05
 Reference value :  1.45100e-05
 Reference value :  1.45128e-05
 Reference value :  1.45149e-05
 Reference value :  1.45171e-05
 Reference value :  1.45211e-05
 Reference value :  1.45316e-05
 Reference value :  1.45860e-05
 Reference value :  1.46366e-05
 Reference value :  1.46637e-05
 Reference value :  1.46990e-05
 Reference value :  1.47501e-05
 Reference value :  1.47502e-05
 Reference value :  1.47502e-05
 Reference value :  1.47504e-05
 Reference value :  1.47509e-05
 Reference value :  1.47518e-05
 Reference value :  1.47530e-05
 Reference value :  1.47551e-05
 Reference value :  1.47579e-05
 Reference value :  1.47728e-05
 Reference value :  1.49003e-05
 Reference value :  1.50001e-05
 Reference value :  1.50002e-05
 Reference value :  1.50013e-05
 Reference value :  1.50022e-05
 Reference value :  1.50039e-05
 Reference value :  1.50055e-05
 Reference value :  1.50073e-05
 Reference value :  1.50090e-05
 Reference value :  1.50112e-05
 Reference value :  1.50196e-05
 Reference value :  1.51599e-05
 Reference value :  1.52501e-05
 Reference value :  1.52502e-05
 Reference value :  1.52503e-05
 Reference value :  1.52509e-05
 Reference value :  1.52518e-05
 Reference value :  1.52538e-05
 Reference value :  1.52544e-05
 Reference value :  1.52558e-05
 Reference value :  1.52576e-05
 Reference value :  1.52593e-05
 Reference value :  1.52648e-05
 Reference value :  1.53075e-05
 Reference value :  1.55013e-05
 Reference value :  1.55051e-05
 Reference value :  1.55073e-05
 Reference value :  1.55103e-05
 Reference value :  1.55122e-05
 Reference value :  1.55140e-05
 Reference value :  1.55166e-05
 Reference value :  1.55185e-05
 Reference value :  1.55225e-05
 Reference value :  1.55390e-05
 Reference value :  1.55963e-05
 Reference value :  1.56666e-05
 Reference value :  1.57100e-05
 Reference value :  1.57405e-05
 Reference value :  1.57501e-05
 Reference value :  1.57502e-05
 Reference value :  1.57504e-05
 Reference value :  1.57514e-05
 Reference value :  1.57524e-05
 Reference value :  1.57538e-05
 Reference value :  1.57557e-05
 Reference value :  1.57591e-05
 Reference value :  1.57836e-05
 Reference value :  1.58783e-05
 Reference value :  1.60000e-05
 Reference value :  1.60001e-05
 Reference value :  1.60002e-05
 Reference value :  1.60005e-05
 Reference value :  1.60013e-05
 Reference value :  1.60022e-05
 Reference value :  1.60032e-05
 Reference value :  1.60044e-05
 Reference value :  1.60062e-05
 Reference value :  1.60082e-05
 Reference value :  1.60116e-05
 Reference value :  1.60204e-05
 Reference value :  1.60782e-05
 Reference value :  1.62501e-05
 Reference value :  1.62502e-05
 Reference value :  1.62503e-05
 Reference value :  1.62509e-05
 Reference value :  1.62514e-05
 Reference value :  1.62524e-05
 Reference value :  1.62538e-05
 Reference value :  1.62550e-05
 Reference value :  1.62576e-05
 Reference value :  1.62725e-05
 Reference value :  1.63396e-05
 Reference value :  1.65000e-05
 Reference value :  1.65001e-05
 Reference value :  1.65001e-05
 Reference value :  1.65002e-05
 Reference value :  1.65005e-05
 Reference value :  1.65013e-05
 Reference value :  1.65022e-05
 Reference value :  1.65033e-05
 Reference value :  1.65044e-05
 Reference value :  1.65056e-05
 Reference value :  1.65061e-05
 Reference value :  1.65076e-05
 Reference value :  1.65093e-05
 Reference value :  1.65114e-05
 Reference value :  1.65267e-05
 Reference value :  1.66493e-05
 Reference value :  1.67501e-05
 Reference value :  1.67502e-05
 Reference value :  1.67503e-05
 Reference value :  1.67507e-05
 Reference value :  1.67514e-05
 Reference value :  1.67530e-05
 Reference value :  1.67548e-05
 Reference value :  1.67579e-05
 Reference value :  1.67712e-05
 Reference value :  1.68840e-05
 Reference value :  1.70000e-05
 Reference value :  1.70000e-05
 Reference value :  1.70000e-05
 Reference value :  1.70000e-05
 Reference value :  1.70001e-05
 Reference value :  1.70001e-05
 Reference value :  1.70002e-05
 Reference value :  1.70004e-05
 Reference value :  1.70012e-05
 Reference value :  1.70017e-05
 Reference value :  1.70027e-05
 Reference value :  1.70040e-05
 Reference value :  1.70054e-05
 Reference value :  1.70068e-05
 Reference value :  1.70109e-05
 Reference value :  1.70208e-05
 Reference value :  1.70270e-05
 Reference value :  1.70314e-05
 Reference value :  1.70378e-05
 Reference value :  1.70413e-05
 Reference value :  1.70435e-05
 Reference value :  1.70484e-05
 Reference value :  1.70533e-05
 Reference value :  1.70578e-05
 Reference value :  1.70705e-05
 Reference value :  1.70891e-05
 Reference value :  1.72501e-05
 Reference value :  1.72502e-05
 Reference value :  1.72502e-05
 Reference value :  1.72504e-05
 Reference value :  1.72514e-05
 Reference value :  1.72530e-05
 Reference value :  1.72544e-05
 Reference value :  1.72567e-05
 Reference value :  1.72618e-05
 Reference value :  1.73043e-05
 Reference value :  1.75000e-05
 Reference value :  1.75001e-05
 Reference value :  1.75001e-05
 Reference value :  1.75003e-05
 Reference value :  1.75013e-05
 Reference value :  1.75022e-05
 Reference value :  1.75039e-05
 Reference value :  1.75057e-05
 Reference value :  1.75080e-05
 Reference value :  1.75107e-05
 Reference value :  1.75151e-05
 Reference value :  1.75191e-05
 Reference value :  1.75309e-05
 Reference value :  1.75767e-05
 Reference value :  1.77501e-05
 Reference value :  1.77502e-05
 Reference value :  1.77502e-05
 Reference value :  1.77504e-05
 Reference value :  1.77509e-05
 Reference value :  1.77518e-05
 Reference value :  1.77530e-05
 Reference value :  1.77544e-05
 Reference value :  1.77558e-05
 Reference value :  1.77574e-05
 Reference value :  1.77601e-05
 Reference value :  1.77666e-05
 Reference value :  1.77856e-05
 Reference value :  1.78457e-05
 Reference value :  1.80003e-05
 Reference value :  1.80012e-05
 Reference value :  1.80018e-05
 Reference value :  1.80027e-05
 Reference value :  1.80039e-05
 Reference value :  1.80049e-05
 Reference value :  1.80055e-05
 Reference value :  1.80067e-05
 Reference value :  1.80097e-05
 Reference value :  1.80119e-05
 Reference value :  1.80139e-05
 Reference value :  1.80157e-05
 Reference value :  1.80189e-05
 Reference value :  1.80294e-05
 Reference value :  1.81322e-05
 Reference value :  1.82501e-05
 Reference value :  1.82502e-05
 Reference value :  1.82503e-05
 Reference value :  1.82507e-05
 Reference value :  1.82514e-05
 Reference value :  1.82524e-05
 Reference value :  1.82538e-05
 Reference value :  1.82550e-05
 Reference value :  1.82566e-05
 Reference value :  1.82614e-05
 Reference value :  1.82836e-05
 Reference value :  1.84045e-05
 Reference value :  1.85000e-05
 Reference value :  1.85001e-05
 Reference value :  1.85002e-05
 Reference value :  1.85008e-05
 Reference value :  1.85018e-05
 Reference value :  1.85026e-05
 Reference value :  1.85039e-05
 Reference value :  1.85055e-05
 Reference value :  1.85073e-05
 Reference value :  1.85090e-05
 Reference value :  1.85124e-05
 Reference value :  1.85288e-05
 Reference value :  1.86585e-05
 Reference value :  1.87501e-05
 Reference value :  1.87502e-05
 Reference value :  1.87504e-05
 Reference value :  1.87514e-05
 Reference value :  1.87530e-05
 Reference value :  1.87544e-05
 Reference value :  1.87567e-05
 Reference value :  1.87584e-05
 Reference value :  1.87621e-05
 Reference value :  1.87875e-05
 Reference value :  1.90000e-05
 Reference value :  1.90001e-05
 Reference value :  1.90001e-05
 Reference value :  1.90003e-05
 Reference value :  1.90013e-05
 Reference value :  1.90022e-05
 Reference value :  1.90033e-05
 Reference value :  1.90044e-05
 Reference value :  1.90056e-05
 Reference value :  1.90067e-05
 Reference value :  1.90097e-05
 Reference value :  1.90107e-05
 Reference value :  1.90117e-05
 Reference value :  1.90137e-05
 Reference value :  1.90155e-05
 Reference value :  1.90185e-05
 Reference value :  1.90267e-05
 Reference value :  1.91244e-05
 Reference value :  1.92501e-05
 Reference value :  1.92502e-05
 Reference value :  1.92504e-05
 Reference value :  1.92514e-05
 Reference value :  1.92530e-05
 Reference value :  1.92544e-05
 Reference value :  1.92557e-05
 Reference value :  1.92576e-05
 Reference value :  1.92653e-05
 Reference value :  1.93042e-05
 Reference value :  1.95000e-05
 Reference value :  1.95018e-05
 Reference value :  1.95053e-05
 Reference value :  1.95071e-05
 Reference value :  1.95103e-05
 Reference value :  1.95134e-05
 Reference value :  1.95284e-05
 Reference value :  1.95851e-05
 Reference value :  1.97501e-05
 Reference value :  1.97501e-05
 Reference value :  1.97502e-05
 Reference value :  1.97502e-05
 Reference value :  1.97504e-05
 Reference value :  1.97509e-05
 Reference value :  1.97519e-05
 Reference value :  1.97530e-05
 Reference value :  1.97542e-05
 Reference value :  1.97555e-05
 Reference value :  1.97571e-05
 Reference value :  1.97591e-05
 Reference value :  1.97639e-05
 Reference value :  1.97818e-05
 Reference value :  1.98650e-05
 Reference value :  2.00000e-05
 Reference value :  2.00001e-05
 Reference value :  2.00001e-05
 Reference value :  2.00003e-05
 Reference value :  2.00008e-05
 Reference value :  2.00013e-05
 Reference value :  2.00022e-05
 Reference value :  2.00033e-05
 Reference value :  2.00044e-05
 Reference value :  2.00056e-05
 Reference value :  2.00061e-05
 Reference value :  2.00076e-05
 Reference value :  2.00097e-05
 Reference value :  2.00107e-05
 Reference value :  2.00129e-05
 Reference value :  2.00145e-05
 Reference value :  2.00165e-05
 Reference value :  2.00213e-05
 Reference value :  2.00575e-05
 Reference value :  2.01931e-05
 Reference value :  2.02502e-05
 Reference value :  2.02503e-05
 Reference value :  2.02514e-05
 Reference value :  2.02538e-05
 Reference value :  2.02557e-05
 Reference value :  2.02653e-05
 Reference value :  2.05000e-05
 Reference value :  2.05018e-05
 Reference value :  2.05072e-05
 Reference value :  2.05120e-05
 Reference value :  2.05226e-05
 Reference value :  2.06495e-05
 Reference value :  2.07502e-05
 Reference value :  2.07503e-05
 Reference value :  2.07514e-05
 Reference value :  2.07530e-05
 Reference value :  2.07542e-05
 Reference value :  2.07562e-05
 Reference value :  2.07580e-05
 Reference value :  2.07619e-05
 Reference value :  2.07822e-05
 Reference value :  2.09560e-05
 Reference value :  2.10000e-05
 Reference value :  2.10001e-05
 Reference value :  2.10002e-05
 Reference value :  2.10008e-05
 Reference value :  2.10018e-05
 Reference value :  2.10027e-05
 Reference value :  2.10039e-05
 Reference value :  2.10044e-05
 Reference value :  2.10056e-05
 Reference value :  2.10061e-05
 Reference value :  2.10084e-05
 Reference value :  2.10107e-05
 Reference value :  2.10129e-05
 Reference value :  2.10145e-05
 Reference value :  2.10165e-05
 Reference value :  2.10185e-05
 Reference value :  2.10231e-05
 Reference value :  2.10411e-05
 Reference value :  2.10789e-05
 Reference value :  2.11026e-05
 Reference value :  2.11438e-05
 Reference value :  2.12501e-05
 Reference value :  2.12502e-05
 Reference value :  2.12503e-05
 Reference value :  2.12509e-05
 Reference value :  2.12518e-05
 Reference value :  2.12530e-05
 Reference value :  2.12544e-05
 Reference value :  2.12566e-05
 Reference value :  2.12614e-05
 Reference value :  2.12836e-05
 Reference value :  2.14042e-05
 Reference value :  2.15000e-05
 Reference value :  2.15001e-05
 Reference value :  2.15002e-05
 Reference value :  2.15008e-05
 Reference value :  2.15018e-05
 Reference value :  2.15033e-05
 Reference value :  2.15047e-05
 Reference value :  2.15066e-05
 Reference value :  2.15082e-05
 Reference value :  2.15112e-05
 Reference value :  2.15289e-05
 Reference value :  2.17501e-05
 Reference value :  2.17502e-05
 Reference value :  2.17503e-05
 Reference value :  2.17509e-05
 Reference value :  2.17518e-05
 Reference value :  2.17538e-05
 Reference value :  2.17550e-05
 Reference value :  2.17576e-05
 Reference value :  2.17593e-05
 Reference value :  2.17649e-05
 Reference value :  2.18075e-05
 Reference value :  2.20013e-05
 Reference value :  2.20051e-05
 Reference value :  2.20073e-05
 Reference value :  2.20103e-05
 Reference value :  2.20122e-05
 Reference value :  2.20140e-05
 Reference value :  2.20157e-05
 Reference value :  2.20175e-05
 Reference value :  2.20194e-05
 Reference value :  2.20297e-05
 Reference value :  2.20399e-05
 Reference value :  2.20490e-05
 Reference value :  2.20576e-05
 Reference value :  2.20731e-05
 Reference value :  2.22170e-05
 Reference value :  2.22501e-05
 Reference value :  2.22502e-05
 Reference value :  2.22507e-05
 Reference value :  2.22519e-05
 Reference value :  2.22538e-05
 Reference value :  2.22550e-05
 Reference value :  2.22576e-05
 Reference value :  2.22653e-05
 Reference value :  2.23041e-05
 Reference value :  2.25000e-05
 Reference value :  2.25001e-05
 Reference value :  2.25002e-05
 Reference value :  2.25008e-05
 Reference value :  2.25022e-05
 Reference value :  2.25038e-05
 Reference value :  2.25062e-05
 Reference value :  2.25093e-05
 Reference value :  2.25129e-05
 Reference value :  2.25454e-05
 Reference value :  2.27501e-05
 Reference value :  2.27502e-05
 Reference value :  2.27502e-05
 Reference value :  2.27504e-05
 Reference value :  2.27509e-05
 Reference value :  2.27518e-05
 Reference value :  2.27530e-05
 Reference value :  2.27544e-05
 Reference value :  2.27558e-05
 Reference value :  2.27576e-05
 Reference value :  2.27655e-05
 Reference value :  2.28397e-05
 Reference value :  2.30015e-05
 Reference value :  2.30045e-05
 Reference value :  2.30061e-05
 Reference value :  2.30092e-05
 Reference value :  2.30106e-05
 Reference value :  2.30120e-05
 Reference value :  2.30145e-05
 Reference value :  2.30180e-05
 Reference value :  2.30228e-05
 Reference value :  2.30368e-05
 Reference value :  2.31102e-05
 Reference value :  2.32501e-05
 Reference value :  2.32502e-05
 Reference value :  2.32502e-05
 Reference value :  2.32504e-05
 Reference value :  2.32514e-05
 Reference value :  2.32530e-05
 Reference value :  2.32544e-05
 Reference value :  2.32567e-05
 Reference value :  2.32659e-05
 Reference value :  2.33044e-05
 Reference value :  2.33829e-05
 Reference value :  2.34674e-05
 Reference value :  2.35001e-05
 Reference value :  2.35001e-05
 Reference value :  2.35003e-05
 Reference value :  2.35013e-05
 Reference value :  2.35026e-05
 Reference value :  2.35047e-05
 Reference value :  2.35074e-05
 Reference value :  2.35100e-05
 Reference value :  2.35287e-05
 Reference value :  2.37501e-05
 Reference value :  2.37502e-05
 Reference value :  2.37507e-05
 Reference value :  2.37514e-05
 Reference value :  2.37530e-05
 Reference value :  2.37544e-05
 Reference value :  2.37567e-05
 Reference value :  2.37593e-05
 Reference value :  2.37752e-05
 Reference value :  2.40000e-05
 Reference value :  2.40001e-05
 Reference value :  2.40002e-05
 Reference value :  2.40013e-05
 Reference value :  2.40022e-05
 Reference value :  2.40039e-05
 Reference value :  2.40044e-05
 Reference value :  2.40056e-05
 Reference value :  2.40067e-05
 Reference value :  2.40097e-05
 Reference value :  2.40107e-05
 Reference value :  2.40129e-05
 Reference value :  2.40145e-05
 Reference value :  2.40165e-05
 Reference value :  2.40197e-05
 Reference value :  2.40258e-05
 Reference value :  2.40575e-05
 Reference value :  2.40803e-05
 Reference value :  2.41041e-05
 Reference value :  2.41369e-05
 Reference value :  2.41761e-05
 Reference value :  2.42501e-05
 Reference value :  2.42502e-05
 Reference value :  2.42503e-05
 Reference value :  2.42507e-05
 Reference value :  2.42514e-05
 Reference value :  2.42530e-05
 Reference value :  2.42544e-05
 Reference value :  2.42567e-05
 Reference value :  2.42614e-05
 Reference value :  2.43049e-05
 Reference value :  2.45000e-05
 Reference value :  2.45001e-05
 Reference value :  2.45002e-05
 Reference value :  2.45003e-05
 Reference value :  2.45013e-05
 Reference value :  2.45022e-05
 Reference value :  2.45032e-05
 Reference value :  2.45044e-05
 Reference value :  2.45062e-05
 Reference value :  2.45082e-05
 Reference value :  2.45104e-05
 Reference value :  2.45129e-05
 Reference value :  2.45287e-05
 Reference value :  2.47501e-05
 Reference value :  2.47502e-05
 Reference value :  2.47502e-05
 Reference value :  2.47504e-05
 Reference value :  2.47509e-05
 Reference value :  2.47518e-05
 Reference value :  2.47538e-05
 Reference value :  2.47550e-05
 Reference value :  2.47576e-05
 Reference value :  2.47725e-05
 Reference value :  2.49050e-05
 Reference value :  2.50001e-05
 Reference value :  2.50002e-05
 Reference value :  2.50005e-05
 Reference value :  2.50018e-05
 Reference value :  2.50027e-05
 Reference value :  2.50039e-05
 Reference value :  2.50050e-05
 Reference value :  2.50061e-05
 Reference value :  2.50076e-05
 Reference value :  2.50103e-05
 Reference value :  2.50267e-05
 Reference value :  2.52501e-05
 Reference value :  2.52502e-05
 Reference value :  2.52503e-05
 Reference value :  2.52507e-05
 Reference value :  2.52514e-05
 Reference value :  2.52530e-05
 Reference value :  2.52548e-05
 Reference value :  2.52579e-05
 Reference value :  2.52712e-05
 Reference value :  2.53256e-05
 Reference value :  2.55000e-05
 Reference value :  2.55000e-05
 Reference value :  2.55000e-05
 Reference value :  2.55000e-05
 Reference value :  2.55001e-05
 Reference value :  2.55001e-05
 Reference value :  2.55004e-05
 Reference value :  2.55017e-05
 Reference value :  2.55027e-05
 Reference value :  2.55048e-05
 Reference value :  2.55061e-05
 Reference value :  2.55076e-05
 Reference value :  2.55208e-05
 Reference value :  2.55270e-05
 Reference value :  2.55314e-05
 Reference value :  2.55378e-05
 Reference value :  2.55414e-05
 Reference value :  2.55459e-05
 Reference value :  2.55518e-05
 Reference value :  2.55575e-05
 Reference value :  2.55622e-05
 Reference value :  2.55756e-05
 Reference value :  2.55809e-05
 Reference value :  2.57071e-05
 Reference value :  2.57502e-05
 Reference value :  2.57507e-05
 Reference value :  2.57514e-05
 Reference value :  2.57530e-05
 Reference value :  2.57551e-05
 Reference value :  2.57593e-05
 Reference value :  2.57843e-05
 Reference value :  2.60000e-05
 Reference value :  2.60001e-05
 Reference value :  2.60002e-05
 Reference value :  2.60008e-05
 Reference value :  2.60018e-05
 Reference value :  2.60026e-05
 Reference value :  2.60048e-05
 Reference value :  2.60080e-05
 Reference value :  2.60121e-05
 Reference value :  2.60151e-05
 Reference value :  2.60211e-05
 Reference value :  2.60525e-05
 Reference value :  2.62501e-05
 Reference value :  2.62502e-05
 Reference value :  2.62504e-05
 Reference value :  2.62509e-05
 Reference value :  2.62514e-05
 Reference value :  2.62524e-05
 Reference value :  2.62538e-05
 Reference value :  2.62551e-05
 Reference value :  2.62574e-05
 Reference value :  2.62618e-05
 Reference value :  2.62767e-05
 Reference value :  2.63934e-05
 Reference value :  2.65003e-05
 Reference value :  2.65012e-05
 Reference value :  2.65028e-05
 Reference value :  2.65046e-05
 Reference value :  2.65057e-05
 Reference value :  2.65075e-05
 Reference value :  2.65106e-05
 Reference value :  2.65127e-05
 Reference value :  2.65144e-05
 Reference value :  2.65163e-05
 Reference value :  2.65196e-05
 Reference value :  2.65320e-05
 Reference value :  2.66300e-05
 Reference value :  2.67501e-05
 Reference value :  2.67502e-05
 Reference value :  2.67507e-05
 Reference value :  2.67514e-05
 Reference value :  2.67530e-05
 Reference value :  2.67544e-05
 Reference value :  2.67566e-05
 Reference value :  2.67652e-05
 Reference value :  2.68392e-05
 Reference value :  2.70000e-05
 Reference value :  2.70001e-05
 Reference value :  2.70002e-05
 Reference value :  2.70013e-05
 Reference value :  2.70022e-05
 Reference value :  2.70039e-05
 Reference value :  2.70055e-05
 Reference value :  2.70073e-05
 Reference value :  2.70090e-05
 Reference value :  2.70148e-05
 Reference value :  2.71595e-05
 Reference value :  2.72502e-05
 Reference value :  2.72503e-05
 Reference value :  2.72507e-05
 Reference value :  2.72514e-05
 Reference value :  2.72530e-05
 Reference value :  2.72550e-05
 Reference value :  2.72567e-05
 Reference value :  2.72593e-05
 Reference value :  2.72752e-05
 Reference value :  2.74247e-05
 Reference value :  2.75000e-05
 Reference value :  2.75001e-05
 Reference value :  2.75002e-05
 Reference value :  2.75008e-05
 Reference value :  2.75022e-05
 Reference value :  2.75039e-05
 Reference value :  2.75050e-05
 Reference value :  2.75061e-05
 Reference value :  2.75097e-05
 Reference value :  2.75117e-05
 Reference value :  2.75137e-05
 Reference value :  2.75165e-05
 Reference value :  2.75197e-05
 Reference value :  2.75323e-05
 Reference value :  2.76860e-05
 Reference value :  2.77502e-05
 Reference value :  2.77504e-05
 Reference value :  2.77514e-05
 Reference value :  2.77530e-05
 Reference value :  2.77544e-05
 Reference value :  2.77557e-05
 Reference value :  2.77591e-05
 Reference value :  2.77836e-05
 Reference value :  2.80018e-05
 Reference value :  2.80071e-05
 Reference value :  2.80119e-05
 Reference value :  2.80217e-05
 Reference value :  2.81328e-05
 Reference value :  2.82501e-05
 Reference value :  2.82502e-05
 Reference value :  2.82504e-05
 Reference value :  2.82514e-05
 Reference value :  2.82524e-05
 Reference value :  2.82537e-05
 Reference value :  2.82548e-05
 Reference value :  2.82563e-05
 Reference value :  2.82581e-05
 Reference value :  2.82603e-05
 Reference value :  2.82672e-05
 Reference value :  2.82977e-05
 Reference value :  2.85000e-05
 Reference value :  2.85001e-05
 Reference value :  2.85001e-05
 Reference value :  2.85003e-05
 Reference value :  2.85013e-05
 Reference value :  2.85022e-05
 Reference value :  2.85033e-05
 Reference value :  2.85044e-05
 Reference value :  2.85056e-05
 Reference value :  2.85067e-05
 Reference value :  2.85097e-05
 Reference value :  2.85107e-05
 Reference value :  2.85129e-05
 Reference value :  2.85155e-05
 Reference value :  2.85185e-05
 Reference value :  2.85267e-05
 Reference value :  2.85812e-05
 Reference value :  2.86910e-05
 Reference value :  2.87501e-05
 Reference value :  2.87503e-05
 Reference value :  2.87509e-05
 Reference value :  2.87524e-05
 Reference value :  2.87544e-05
 Reference value :  2.87576e-05
 Reference value :  2.88391e-05
 Reference value :  2.90018e-05
 Reference value :  2.90072e-05
 Reference value :  2.90120e-05
 Reference value :  2.90226e-05
 Reference value :  2.92501e-05
 Reference value :  2.92502e-05
 Reference value :  2.92507e-05
 Reference value :  2.92519e-05
 Reference value :  2.92536e-05
 Reference value :  2.92562e-05
 Reference value :  2.92592e-05
 Reference value :  2.92671e-05
 Reference value :  2.95000e-05
 Reference value :  2.95001e-05
 Reference value :  2.95008e-05
 Reference value :  2.95022e-05
 Reference value :  2.95039e-05
 Reference value :  2.95056e-05
 Reference value :  2.95076e-05
 Reference value :  2.95107e-05
 Reference value :  2.95137e-05
 Reference value :  2.95164e-05
 Reference value :  2.95196e-05
 Reference value :  2.95405e-05
 Reference value :  2.95853e-05
 Reference value :  2.96158e-05
 Reference value :  2.97257e-05
 Reference value :  2.97502e-05
 Reference value :  2.97503e-05
 Reference value :  2.97514e-05
 Reference value :  2.97530e-05
 Reference value :  2.97550e-05
 Reference value :  2.97591e-05
 Reference value :  2.98042e-05
 Reference value :  3.00000e-05
 Reference value :  3.00001e-05
 Reference value :  3.00002e-05
 Reference value :  3.00005e-05
 Reference value :  3.00013e-05
 Reference value :  3.00022e-05
 Reference value :  3.00039e-05
 Reference value :  3.00055e-05
 Reference value :  3.00073e-05
 Reference value :  3.00090e-05
 Reference value :  3.00112e-05
 Reference value :  3.00195e-05
 Reference value :  3.00850e-05
 Reference value :  3.02501e-05
 Reference value :  3.02502e-05
 Reference value :  3.02503e-05
 Reference value :  3.02507e-05
 Reference value :  3.02514e-05
 Reference value :  3.02530e-05
 Reference value :  3.02544e-05
 Reference value :  3.02567e-05
 Reference value :  3.02593e-05
 Reference value :  3.02683e-05
 Reference value :  3.03479e-05
 Reference value :  3.05013e-05
 Reference value :  3.05051e-05
 Reference value :  3.05073e-05
 Reference value :  3.05094e-05
 Reference value :  3.05103e-05
 Reference value :  3.05122e-05
 Reference value :  3.05139e-05
 Reference value :  3.05156e-05
 Reference value :  3.05174e-05
 Reference value :  3.05193e-05
 Reference value :  3.05222e-05
 Reference value :  3.05296e-05
 Reference value :  3.05408e-05
 Reference value :  3.05497e-05
 Reference value :  3.05566e-05
 Reference value :  3.05825e-05
 Reference value :  3.06601e-05
 Reference value :  3.07501e-05
 Reference value :  3.07502e-05
 Reference value :  3.07504e-05
 Reference value :  3.07514e-05
 Reference value :  3.07530e-05
 Reference value :  3.07544e-05
 Reference value :  3.07566e-05
 Reference value :  3.07613e-05
 Reference value :  3.08041e-05
 Reference value :  3.10000e-05
 Reference value :  3.10001e-05
 Reference value :  3.10002e-05
 Reference value :  3.10005e-05
 Reference value :  3.10013e-05
 Reference value :  3.10022e-05
 Reference value :  3.10032e-05
 Reference value :  3.10044e-05
 Reference value :  3.10072e-05
 Reference value :  3.10093e-05
 Reference value :  3.10116e-05
 Reference value :  3.10288e-05
 Reference value :  3.12501e-05
 Reference value :  3.12502e-05
 Reference value :  3.12503e-05
 Reference value :  3.12514e-05
 Reference value :  3.12530e-05
 Reference value :  3.12544e-05
 Reference value :  3.12576e-05
 Reference value :  3.13048e-05
 Reference value :  3.15000e-05
 Reference value :  3.15001e-05
 Reference value :  3.15008e-05
 Reference value :  3.15022e-05
 Reference value :  3.15039e-05
 Reference value :  3.15050e-05
 Reference value :  3.15061e-05
 Reference value :  3.15100e-05
 Reference value :  3.15128e-05
 Reference value :  3.15149e-05
 Reference value :  3.15171e-05
 Reference value :  3.15211e-05
 Reference value :  3.15410e-05
 Reference value :  3.16868e-05
 Reference value :  3.17502e-05
 Reference value :  3.17503e-05
 Reference value :  3.17507e-05
 Reference value :  3.17514e-05
 Reference value :  3.17530e-05
 Reference value :  3.17544e-05
 Reference value :  3.17567e-05
 Reference value :  3.17614e-05
 Reference value :  3.18049e-05
 Reference value :  3.19679e-05
 Reference value :  3.20000e-05
 Reference value :  3.20001e-05
 Reference value :  3.20002e-05
 Reference value :  3.20008e-05
 Reference value :  3.20018e-05
 Reference value :  3.20027e-05
 Reference value :  3.20040e-05
 Reference value :  3.20067e-05
 Reference value :  3.20084e-05
 Reference value :  3.20112e-05
 Reference value :  3.20274e-05
 Reference value :  3.21397e-05
 Reference value :  3.22502e-05
 Reference value :  3.22502e-05
 Reference value :  3.22504e-05
 Reference value :  3.22514e-05
 Reference value :  3.22530e-05
 Reference value :  3.22544e-05
 Reference value :  3.22567e-05
 Reference value :  3.22593e-05
 Reference value :  3.22683e-05
 Reference value :  3.23488e-05
 Reference value :  3.25000e-05
 Reference value :  3.25001e-05
 Reference value :  3.25005e-05
 Reference value :  3.25018e-05
 Reference value :  3.25033e-05
 Reference value :  3.25044e-05
 Reference value :  3.25056e-05
 Reference value :  3.25075e-05
 Reference value :  3.25107e-05
 Reference value :  3.25137e-05
 Reference value :  3.25165e-05
 Reference value :  3.25197e-05
 Reference value :  3.25257e-05
 Reference value :  3.25399e-05
 Reference value :  3.25590e-05
 Reference value :  3.26149e-05
 Reference value :  3.27501e-05
 Reference value :  3.27503e-05
 Reference value :  3.27514e-05
 Reference value :  3.27538e-05
 Reference value :  3.27557e-05
 Reference value :  3.27614e-05
 Reference value :  3.29067e-05
 Reference value :  3.30001e-05
 Reference value :  3.30003e-05
 Reference value :  3.30013e-05
 Reference value :  3.30022e-05
 Reference value :  3.30032e-05
 Reference value :  3.30044e-05
 Reference value :  3.30062e-05
 Reference value :  3.30082e-05
 Reference value :  3.30116e-05
 Reference value :  3.30288e-05
 Reference value :  3.32501e-05
 Reference value :  3.32502e-05
 Reference value :  3.32503e-05
 Reference value :  3.32509e-05
 Reference value :  3.32518e-05
 Reference value :  3.32538e-05
 Reference value :  3.32550e-05
 Reference value :  3.32576e-05
 Reference value :  3.32725e-05
 Reference value :  3.34051e-05
 Reference value :  3.35018e-05
 Reference value :  3.35072e-05
 Reference value :  3.35107e-05
 Reference value :  3.35177e-05
 Reference value :  3.35372e-05
 Reference value :  3.36334e-05
 Reference value :  3.37501e-05
 Reference value :  3.37502e-05
 Reference value :  3.37503e-05
 Reference value :  3.37507e-05
 Reference value :  3.37514e-05
 Reference value :  3.37530e-05
 Reference value :  3.37552e-05
 Reference value :  3.37572e-05
 Reference value :  3.37687e-05
 Reference value :  3.38108e-05
 Reference value :  3.40000e-05
 Reference value :  3.40000e-05
 Reference value :  3.40000e-05
 Reference value :  3.40000e-05
 Reference value :  3.40001e-05
 Reference value :  3.40001e-05
 Reference value :  3.40004e-05
 Reference value :  3.40012e-05
 Reference value :  3.40017e-05
 Reference value :  3.40027e-05
 Reference value :  3.40048e-05
 Reference value :  3.40061e-05
 Reference value :  3.40076e-05
 Reference value :  3.40209e-05
 Reference value :  3.40270e-05
 Reference value :  3.40314e-05
 Reference value :  3.40378e-05
 Reference value :  3.40423e-05
 Reference value :  3.40534e-05
 Reference value :  3.40571e-05
 Reference value :  3.40630e-05
 Reference value :  3.40689e-05
 Reference value :  3.40778e-05
 Reference value :  3.40949e-05
 Reference value :  3.41979e-05
 Reference value :  3.42501e-05
 Reference value :  3.42502e-05
 Reference value :  3.42503e-05
 Reference value :  3.42509e-05
 Reference value :  3.42519e-05
 Reference value :  3.42530e-05
 Reference value :  3.42544e-05
 Reference value :  3.42567e-05
 Reference value :  3.42618e-05
 Reference value :  3.42844e-05
 Reference value :  3.44007e-05
 Reference value :  3.45000e-05
 Reference value :  3.45001e-05
 Reference value :  3.45002e-05
 Reference value :  3.45008e-05
 Reference value :  3.45013e-05
 Reference value :  3.45022e-05
 Reference value :  3.45033e-05
 Reference value :  3.45048e-05
 Reference value :  3.45067e-05
 Reference value :  3.45080e-05
 Reference value :  3.45107e-05
 Reference value :  3.45151e-05
 Reference value :  3.45211e-05
 Reference value :  3.45768e-05
 Reference value :  3.47502e-05
 Reference value :  3.47504e-05
 Reference value :  3.47518e-05
 Reference value :  3.47544e-05
 Reference value :  3.47574e-05
 Reference value :  3.47618e-05
 Reference value :  3.47707e-05
 Reference value :  3.48176e-05
 Reference value :  3.50000e-05
 Reference value :  3.50001e-05
 Reference value :  3.50002e-05
 Reference value :  3.50013e-05
 Reference value :  3.50022e-05
 Reference value :  3.50033e-05
 Reference value :  3.50044e-05
 Reference value :  3.50056e-05
 Reference value :  3.50076e-05
 Reference value :  3.50107e-05
 Reference value :  3.50128e-05
 Reference value :  3.50145e-05
 Reference value :  3.50165e-05
 Reference value :  3.50186e-05
 Reference value :  3.50214e-05
 Reference value :  3.50324e-05
 Reference value :  3.50848e-05
 Reference value :  3.52501e-05
 Reference value :  3.52501e-05
 Reference value :  3.52502e-05
 Reference value :  3.52503e-05
 Reference value :  3.52507e-05
 Reference value :  3.52514e-05
 Reference value :  3.52524e-05
 Reference value :  3.52538e-05
 Reference value :  3.52550e-05
 Reference value :  3.52576e-05
 Reference value :  3.52653e-05
 Reference value :  3.53042e-05
 Reference value :  3.55000e-05
 Reference value :  3.55001e-05
 Reference value :  3.55001e-05
 Reference value :  3.55003e-05
 Reference value :  3.55013e-05
 Reference value :  3.55022e-05
 Reference value :  3.55033e-05
 Reference value :  3.55039e-05
 Reference value :  3.55047e-05
 Reference value :  3.55066e-05
 Reference value :  3.55073e-05
 Reference value :  3.55082e-05
 Reference value :  3.55090e-05
 Reference value :  3.55112e-05
 Reference value :  3.55148e-05
 Reference value :  3.55476e-05
 Reference value :  3.56598e-05
 Reference value :  3.57501e-05
 Reference value :  3.57502e-05
 Reference value :  3.57502e-05
 Reference value :  3.57503e-05
 Reference value :  3.57507e-05
 Reference value :  3.57514e-05
 Reference value :  3.57524e-05
 Reference value :  3.57538e-05
 Reference value :  3.57544e-05
 Reference value :  3.57558e-05
 Reference value :  3.57567e-05
 Reference value :  3.57584e-05
 Reference value :  3.57607e-05
 Reference value :  3.57683e-05
 Reference value :  3.58076e-05
 Reference value :  3.60000e-05
 Reference value :  3.60013e-05
 Reference value :  3.60039e-05
 Reference value :  3.60052e-05
 Reference value :  3.60075e-05
 Reference value :  3.60105e-05
 Reference value :  3.60125e-05
 Reference value :  3.60144e-05
 Reference value :  3.60161e-05
 Reference value :  3.60182e-05
 Reference value :  3.60225e-05
 Reference value :  3.60581e-05
 Reference value :  3.61853e-05
 Reference value :  3.62501e-05
 Reference value :  3.62502e-05
 Reference value :  3.62503e-05
 Reference value :  3.62509e-05
 Reference value :  3.62519e-05
 Reference value :  3.62537e-05
 Reference value :  3.62550e-05
 Reference value :  3.62575e-05
 Reference value :  3.62651e-05
 Reference value :  3.63380e-05
 Reference value :  3.65000e-05
 Reference value :  3.65001e-05
 Reference value :  3.65002e-05
 Reference value :  3.65008e-05
 Reference value :  3.65018e-05
 Reference value :  3.65026e-05
 Reference value :  3.65039e-05
 Reference value :  3.65055e-05
 Reference value :  3.65074e-05
 Reference value :  3.65090e-05
 Reference value :  3.65112e-05
 Reference value :  3.65196e-05
 Reference value :  3.65837e-05
 Reference value :  3.67501e-05
 Reference value :  3.67502e-05
 Reference value :  3.67507e-05
 Reference value :  3.67518e-05
 Reference value :  3.67544e-05
 Reference value :  3.67567e-05
 Reference value :  3.67584e-05
 Reference value :  3.67621e-05
 Reference value :  3.68485e-05
 Reference value :  3.70001e-05
 Reference value :  3.70002e-05
 Reference value :  3.70013e-05
 Reference value :  3.70027e-05
 Reference value :  3.70044e-05
 Reference value :  3.70056e-05
 Reference value :  3.70061e-05
 Reference value :  3.70084e-05
 Reference value :  3.70107e-05
 Reference value :  3.70128e-05
 Reference value :  3.70145e-05
 Reference value :  3.70165e-05
 Reference value :  3.70185e-05
 Reference value :  3.70213e-05
 Reference value :  3.70412e-05
 Reference value :  3.71055e-05
 Reference value :  3.72116e-05
 Reference value :  3.72501e-05
 Reference value :  3.72502e-05
 Reference value :  3.72504e-05
 Reference value :  3.72514e-05
 Reference value :  3.72530e-05
 Reference value :  3.72544e-05
 Reference value :  3.72557e-05
 Reference value :  3.72576e-05
 Reference value :  3.72653e-05
 Reference value :  3.73042e-05
 Reference value :  3.75000e-05
 Reference value :  3.75001e-05
 Reference value :  3.75001e-05
 Reference value :  3.75003e-05
 Reference value :  3.75008e-05
 Reference value :  3.75013e-05
 Reference value :  3.75022e-05
 Reference value :  3.75039e-05
 Reference value :  3.75066e-05
 Reference value :  3.75082e-05
 Reference value :  3.75100e-05
 Reference value :  3.75195e-05
 Reference value :  3.76601e-05
 Reference value :  3.77502e-05
 Reference value :  3.77503e-05
 Reference value :  3.77507e-05
 Reference value :  3.77514e-05
 Reference value :  3.77530e-05
 Reference value :  3.77544e-05
 Reference value :  3.77558e-05
 Reference value :  3.77576e-05
 Reference value :  3.77593e-05
 Reference value :  3.77649e-05
 Reference value :  3.78076e-05
 Reference value :  3.80000e-05
 Reference value :  3.80001e-05
 Reference value :  3.80002e-05
 Reference value :  3.80003e-05
 Reference value :  3.80013e-05
 Reference value :  3.80022e-05
 Reference value :  3.80033e-05
 Reference value :  3.80044e-05
 Reference value :  3.80056e-05
 Reference value :  3.80067e-05
 Reference value :  3.80097e-05
 Reference value :  3.80117e-05
 Reference value :  3.80137e-05
 Reference value :  3.80155e-05
 Reference value :  3.80185e-05
 Reference value :  3.80230e-05
 Reference value :  3.80507e-05
 Reference value :  3.80820e-05
 Reference value :  3.81330e-05
 Reference value :  3.82501e-05
 Reference value :  3.82502e-05
 Reference value :  3.82507e-05
 Reference value :  3.82518e-05
 Reference value :  3.82538e-05
 Reference value :  3.82557e-05
 Reference value :  3.82614e-05
 Reference value :  3.83042e-05
 Reference value :  3.85000e-05
 Reference value :  3.85006e-05
 Reference value :  3.85025e-05
 Reference value :  3.85038e-05
 Reference value :  3.85052e-05
 Reference value :  3.85073e-05
 Reference value :  3.85092e-05
 Reference value :  3.85114e-05
 Reference value :  3.85195e-05
 Reference value :  3.86064e-05
 Reference value :  3.87501e-05
 Reference value :  3.87502e-05
 Reference value :  3.87502e-05
 Reference value :  3.87504e-05
 Reference value :  3.87509e-05
 Reference value :  3.87514e-05
 Reference value :  3.87524e-05
 Reference value :  3.87538e-05
 Reference value :  3.87551e-05
 Reference value :  3.87567e-05
 Reference value :  3.87584e-05
 Reference value :  3.87622e-05
 Reference value :  3.87877e-05
 Reference value :  3.90000e-05
 Reference value :  3.90001e-05
 Reference value :  3.90002e-05
 Reference value :  3.90005e-05
 Reference value :  3.90013e-05
 Reference value :  3.90022e-05
 Reference value :  3.90033e-05
 Reference value :  3.90044e-05
 Reference value :  3.90056e-05
 Reference value :  3.90067e-05
 Reference value :  3.90097e-05
 Reference value :  3.90117e-05
 Reference value :  3.90137e-05
 Reference value :  3.90155e-05
 Reference value :  3.90175e-05
 Reference value :  3.90213e-05
 Reference value :  3.90295e-05
 Reference value :  3.90384e-05
 Reference value :  3.90468e-05
 Reference value :  3.90532e-05
 Reference value :  3.90770e-05
 Reference value :  3.91408e-05
 Reference value :  3.92501e-05
 Reference value :  3.92502e-05
 Reference value :  3.92503e-05
 Reference value :  3.92507e-05
 Reference value :  3.92514e-05
 Reference value :  3.92530e-05
 Reference value :  3.92544e-05
 Reference value :  3.92557e-05
 Reference value :  3.92592e-05
 Reference value :  3.92840e-05
 Reference value :  3.95000e-05
 Reference value :  3.95001e-05
 Reference value :  3.95001e-05
 Reference value :  3.95003e-05
 Reference value :  3.95013e-05
 Reference value :  3.95022e-05
 Reference value :  3.95032e-05
 Reference value :  3.95044e-05
 Reference value :  3.95062e-05
 Reference value :  3.95082e-05
 Reference value :  3.95104e-05
 Reference value :  3.95129e-05
 Reference value :  3.95287e-05
 Reference value :  3.96449e-05
 Reference value :  3.97501e-05
 Reference value :  3.97502e-05
 Reference value :  3.97503e-05
 Reference value :  3.97507e-05
 Reference value :  3.97514e-05
 Reference value :  3.97530e-05
 Reference value :  3.97544e-05
 Reference value :  3.97567e-05
 Reference value :  3.97655e-05
 Reference value :  3.99052e-05
 Reference value :  4.00001e-05
 Reference value :  4.00002e-05
 Reference value :  4.00008e-05
 Reference value :  4.00022e-05
 Reference value :  4.00033e-05
 Reference value :  4.00044e-05
 Reference value :  4.00056e-05
 Reference value :  4.00067e-05
 Reference value :  4.00100e-05
 Reference value :  4.00128e-05
 Reference value :  4.00149e-05
 Reference value :  4.00171e-05
 Reference value :  4.00228e-05
 Reference value :  4.00662e-05
 Reference value :  4.02501e-05
 Reference value :  4.02502e-05
 Reference value :  4.02504e-05
 Reference value :  4.02514e-05
 Reference value :  4.02530e-05
 Reference value :  4.02550e-05
 Reference value :  4.02592e-05
 Reference value :  4.03050e-05
 Reference value :  4.05000e-05
 Reference value :  4.05001e-05
 Reference value :  4.05002e-05
 Reference value :  4.05008e-05
 Reference value :  4.05018e-05
 Reference value :  4.05027e-05
 Reference value :  4.05038e-05
 Reference value :  4.05051e-05
 Reference value :  4.05072e-05
 Reference value :  4.05093e-05
 Reference value :  4.05116e-05
 Reference value :  4.05287e-05
 Reference value :  4.07501e-05
 Reference value :  4.07502e-05
 Reference value :  4.07502e-05
 Reference value :  4.07503e-05
 Reference value :  4.07509e-05
 Reference value :  4.07518e-05
 Reference value :  4.07538e-05
 Reference value :  4.07551e-05
 Reference value :  4.07567e-05
 Reference value :  4.07614e-05
 Reference value :  4.08048e-05
 Reference value :  4.10000e-05
 Reference value :  4.10015e-05
 Reference value :  4.10045e-05
 Reference value :  4.10061e-05
 Reference value :  4.10092e-05
 Reference value :  4.10106e-05
 Reference value :  4.10120e-05
 Reference value :  4.10145e-05
 Reference value :  4.10167e-05
 Reference value :  4.10190e-05
 Reference value :  4.10219e-05
 Reference value :  4.10324e-05
 Reference value :  4.10377e-05
 Reference value :  4.10461e-05
 Reference value :  4.10552e-05
 Reference value :  4.10855e-05
 Reference value :  4.11789e-05
 Reference value :  4.12501e-05
 Reference value :  4.12502e-05
 Reference value :  4.12503e-05
 Reference value :  4.12507e-05
 Reference value :  4.12514e-05
 Reference value :  4.12530e-05
 Reference value :  4.12544e-05
 Reference value :  4.12567e-05
 Reference value :  4.12659e-05
 Reference value :  4.14003e-05
 Reference value :  4.15001e-05
 Reference value :  4.15002e-05
 Reference value :  4.15005e-05
 Reference value :  4.15013e-05
 Reference value :  4.15022e-05
 Reference value :  4.15039e-05
 Reference value :  4.15055e-05
 Reference value :  4.15073e-05
 Reference value :  4.15090e-05
 Reference value :  4.15149e-05
 Reference value :  4.15845e-05
 Reference value :  4.17502e-05
 Reference value :  4.17503e-05
 Reference value :  4.17514e-05
 Reference value :  4.17530e-05
 Reference value :  4.17544e-05
 Reference value :  4.17567e-05
 Reference value :  4.17584e-05
 Reference value :  4.17648e-05
 Reference value :  4.18074e-05
 Reference value :  4.20000e-05
 Reference value :  4.20001e-05
 Reference value :  4.20002e-05
 Reference value :  4.20008e-05
 Reference value :  4.20018e-05
 Reference value :  4.20027e-05
 Reference value :  4.20044e-05
 Reference value :  4.20056e-05
 Reference value :  4.20067e-05
 Reference value :  4.20084e-05
 Reference value :  4.20100e-05
 Reference value :  4.20129e-05
 Reference value :  4.20166e-05
 Reference value :  4.20243e-05
 Reference value :  4.20748e-05
 Reference value :  4.22501e-05
 Reference value :  4.22502e-05
 Reference value :  4.22502e-05
 Reference value :  4.22504e-05
 Reference value :  4.22514e-05
 Reference value :  4.22530e-05
 Reference value :  4.22547e-05
 Reference value :  4.22579e-05
 Reference value :  4.22712e-05
 Reference value :  4.23836e-05
 Reference value :  4.25000e-05
 Reference value :  4.25000e-05
 Reference value :  4.25000e-05
 Reference value :  4.25000e-05
 Reference value :  4.25001e-05
 Reference value :  4.25001e-05
 Reference value :  4.25002e-05
 Reference value :  4.25004e-05
 Reference value :  4.25012e-05
 Reference value :  4.25017e-05
 Reference value :  4.25022e-05
 Reference value :  4.25033e-05
 Reference value :  4.25048e-05
 Reference value :  4.25054e-05
 Reference value :  4.25068e-05
 Reference value :  4.25109e-05
 Reference value :  4.25269e-05
 Reference value :  4.25313e-05
 Reference value :  4.25378e-05
 Reference value :  4.25416e-05
 Reference value :  4.25453e-05
 Reference value :  4.25524e-05
 Reference value :  4.25595e-05
 Reference value :  4.26296e-05
 Reference value :  4.27501e-05
 Reference value :  4.27502e-05
 Reference value :  4.27503e-05
 Reference value :  4.27514e-05
 Reference value :  4.27530e-05
 Reference value :  4.27544e-05
 Reference value :  4.27566e-05
 Reference value :  4.27653e-05
 Reference value :  4.29010e-05
 Reference value :  4.30001e-05
 Reference value :  4.30002e-05
 Reference value :  4.30008e-05
 Reference value :  4.30022e-05
 Reference value :  4.30039e-05
 Reference value :  4.30067e-05
 Reference value :  4.30093e-05
 Reference value :  4.30151e-05
 Reference value :  4.30211e-05
 Reference value :  4.30525e-05
 Reference value :  4.32501e-05
 Reference value :  4.32502e-05
 Reference value :  4.32503e-05
 Reference value :  4.32509e-05
 Reference value :  4.32524e-05
 Reference value :  4.32544e-05
 Reference value :  4.32558e-05
 Reference value :  4.32582e-05
 Reference value :  4.32636e-05
 Reference value :  4.32995e-05
 Reference value :  4.35000e-05
 Reference value :  4.35017e-05
 Reference value :  4.35052e-05
 Reference value :  4.35070e-05
 Reference value :  4.35101e-05
 Reference value :  4.35124e-05
 Reference value :  4.35148e-05
 Reference value :  4.35169e-05
 Reference value :  4.35226e-05
 Reference value :  4.35871e-05
 Reference value :  4.37501e-05
 Reference value :  4.37502e-05
 Reference value :  4.37504e-05
 Reference value :  4.37514e-05
 Reference value :  4.37530e-05
 Reference value :  4.37542e-05
 Reference value :  4.37564e-05
 Reference value :  4.37640e-05
 Reference value :  4.38336e-05
 Reference value :  4.40000e-05
 Reference value :  4.40001e-05
 Reference value :  4.40005e-05
 Reference value :  4.40013e-05
 Reference value :  4.40022e-05
 Reference value :  4.40039e-05
 Reference value :  4.40066e-05
 Reference value :  4.40082e-05
 Reference value :  4.40100e-05
 Reference value :  4.40194e-05
 Reference value :  4.42501e-05
 Reference value :  4.42502e-05
 Reference value :  4.42504e-05
 Reference value :  4.42514e-05
 Reference value :  4.42530e-05
 Reference value :  4.42544e-05
 Reference value :  4.42558e-05
 Reference value :  4.42576e-05
 Reference value :  4.42593e-05
 Reference value :  4.42648e-05
 Reference value :  4.42873e-05
 Reference value :  4.44245e-05
 Reference value :  4.45000e-05
 Reference value :  4.45001e-05
 Reference value :  4.45002e-05
 Reference value :  4.45008e-05
 Reference value :  4.45018e-05
 Reference value :  4.45027e-05
 Reference value :  4.45039e-05
 Reference value :  4.45044e-05
 Reference value :  4.45056e-05
 Reference value :  4.45061e-05
 Reference value :  4.45076e-05
 Reference value :  4.45107e-05
 Reference value :  4.45128e-05
 Reference value :  4.45145e-05
 Reference value :  4.45165e-05
 Reference value :  4.45185e-05
 Reference value :  4.45231e-05
 Reference value :  4.45577e-05
 Reference value :  4.46860e-05
 Reference value :  4.47501e-05
 Reference value :  4.47502e-05
 Reference value :  4.47503e-05
 Reference value :  4.47509e-05
 Reference value :  4.47518e-05
 Reference value :  4.47538e-05
 Reference value :  4.47544e-05
 Reference value :  4.47566e-05
 Reference value :  4.47614e-05
 Reference value :  4.48042e-05
 Reference value :  4.50000e-05
 Reference value :  4.50001e-05
 Reference value :  4.50001e-05
 Reference value :  4.50002e-05
 Reference value :  4.50008e-05
 Reference value :  4.50018e-05
 Reference value :  4.50026e-05
 Reference value :  4.50047e-05
 Reference value :  4.50073e-05
 Reference value :  4.50090e-05
 Reference value :  4.50124e-05
 Reference value :  4.50476e-05
 Reference value :  4.52501e-05
 Reference value :  4.52502e-05
 Reference value :  4.52503e-05
 Reference value :  4.52509e-05
 Reference value :  4.52514e-05
 Reference value :  4.52524e-05
 Reference value :  4.52538e-05
 Reference value :  4.52550e-05
 Reference value :  4.52567e-05
 Reference value :  4.52584e-05
 Reference value :  4.52649e-05
 Reference value :  4.52874e-05
 Reference value :  4.55000e-05
 Reference value :  4.55001e-05
 Reference value :  4.55001e-05
 Reference value :  4.55002e-05
 Reference value :  4.55005e-05
 Reference value :  4.55013e-05
 Reference value :  4.55022e-05
 Reference value :  4.55033e-05
 Reference value :  4.55044e-05
 Reference value :  4.55056e-05
 Reference value :  4.55067e-05
 Reference value :  4.55084e-05
 Reference value :  4.55107e-05
 Reference value :  4.55128e-05
 Reference value :  4.55145e-05
 Reference value :  4.55165e-05
 Reference value :  4.55185e-05
 Reference value :  4.55213e-05
 Reference value :  4.55412e-05
 Reference value :  4.56038e-05
 Reference value :  4.56823e-05
 Reference value :  4.57501e-05
 Reference value :  4.57501e-05
 Reference value :  4.57502e-05
 Reference value :  4.57503e-05
 Reference value :  4.57504e-05
 Reference value :  4.57509e-05
 Reference value :  4.57514e-05
 Reference value :  4.57524e-05
 Reference value :  4.57538e-05
 Reference value :  4.57544e-05
 Reference value :  4.57557e-05
 Reference value :  4.57576e-05
 Reference value :  4.57614e-05
 Reference value :  4.57723e-05
 Reference value :  4.58391e-05
 Reference value :  4.60000e-05
 Reference value :  4.60018e-05
 Reference value :  4.60054e-05
 Reference value :  4.60072e-05
 Reference value :  4.60104e-05
 Reference value :  4.60137e-05
 Reference value :  4.60296e-05
 Reference value :  4.61495e-05
 Reference value :  4.62501e-05
 Reference value :  4.62502e-05
 Reference value :  4.62503e-05
 Reference value :  4.62509e-05
 Reference value :  4.62519e-05
 Reference value :  4.62536e-05
 Reference value :  4.62548e-05
 Reference value :  4.62562e-05
 Reference value :  4.62580e-05
 Reference value :  4.62619e-05
 Reference value :  4.62822e-05
 Reference value :  4.63745e-05
 Reference value :  4.65000e-05
 Reference value :  4.65001e-05
 Reference value :  4.65003e-05
 Reference value :  4.65013e-05
 Reference value :  4.65022e-05
 Reference value :  4.65033e-05
 Reference value :  4.65044e-05
 Reference value :  4.65056e-05
 Reference value :  4.65061e-05
 Reference value :  4.65076e-05
 Reference value :  4.65097e-05
 Reference value :  4.65107e-05
 Reference value :  4.65129e-05
 Reference value :  4.65137e-05
 Reference value :  4.65155e-05
 Reference value :  4.65175e-05
 Reference value :  4.65185e-05
 Reference value :  4.65213e-05
 Reference value :  4.65322e-05
 Reference value :  4.65511e-05
 Reference value :  4.65720e-05
 Reference value :  4.65863e-05
 Reference value :  4.66276e-05
 Reference value :  4.66628e-05
 Reference value :  4.67112e-05
 Reference value :  4.67501e-05
 Reference value :  4.67502e-05
 Reference value :  4.67503e-05
 Reference value :  4.67504e-05
 Reference value :  4.67514e-05
 Reference value :  4.67524e-05
 Reference value :  4.67538e-05
 Reference value :  4.67550e-05
 Reference value :  4.67576e-05
 Reference value :  4.67614e-05
 Reference value :  4.67836e-05
 Reference value :  4.69042e-05
 Reference value :  4.70000e-05
 Reference value :  4.70001e-05
 Reference value :  4.70001e-05
 Reference value :  4.70003e-05
 Reference value :  4.70013e-05
 Reference value :  4.70022e-05
 Reference value :  4.70039e-05
 Reference value :  4.70055e-05
 Reference value :  4.70073e-05
 Reference value :  4.70090e-05
 Reference value :  4.70124e-05
 Reference value :  4.70476e-05
 Reference value :  4.72501e-05
 Reference value :  4.72502e-05
 Reference value :  4.72503e-05
 Reference value :  4.72507e-05
 Reference value :  4.72514e-05
 Reference value :  4.72524e-05
 Reference value :  4.72538e-05
 Reference value :  4.72544e-05
 Reference value :  4.72558e-05
 Reference value :  4.72576e-05
 Reference value :  4.72584e-05
 Reference value :  4.72621e-05
 Reference value :  4.72752e-05
 Reference value :  4.73479e-05
 Reference value :  4.75000e-05
 Reference value :  4.75001e-05
 Reference value :  4.75001e-05
 Reference value :  4.75002e-05
 Reference value :  4.75003e-05
 Reference value :  4.75008e-05
 Reference value :  4.75013e-05
 Reference value :  4.75022e-05
 Reference value :  4.75033e-05
 Reference value :  4.75044e-05
 Reference value :  4.75056e-05
 Reference value :  4.75067e-05
 Reference value :  4.75084e-05
 Reference value :  4.75107e-05
 Reference value :  4.75129e-05
 Reference value :  4.75145e-05
 Reference value :  4.75176e-05
 Reference value :  4.75213e-05
 Reference value :  4.75298e-05
 Reference value :  4.75413e-05
 Reference value :  4.75443e-05
 Reference value :  4.75498e-05
 Reference value :  4.75652e-05
 Reference value :  4.76168e-05
 Reference value :  4.77501e-05
 Reference value :  4.77501e-05
 Reference value :  4.77502e-05
 Reference value :  4.77503e-05
 Reference value :  4.77509e-05
 Reference value :  4.77518e-05
 Reference value :  4.77538e-05
 Reference value :  4.77550e-05
 Reference value :  4.77576e-05
 Reference value :  4.77725e-05
 Reference value :  4.79068e-05
 Reference value :  4.80001e-05
 Reference value :  4.80001e-05
 Reference value :  4.80003e-05
 Reference value :  4.80013e-05
 Reference value :  4.80022e-05
 Reference value :  4.80032e-05
[...]
 Reference value :  1.67000e-04
 Reference value :  1.67000e-04
 Reference value :  1.67001e-04
 Reference value :  1.67002e-04
 Reference value :  1.67002e-04
 Reference value :  1.67003e-04
 Reference value :  1.67005e-04
 Reference value :  1.67007e-04
 Reference value :  1.67007e-04
 Reference value :  1.67009e-04
 Reference value :  1.67011e-04
 Reference value :  1.67020e-04
 Reference value :  1.67085e-04
 Reference value :  1.67250e-04
 Reference value :  1.67250e-04
 Reference value :  1.67250e-04
 Reference value :  1.67250e-04
 Reference value :  1.67251e-04
 Reference value :  1.67251e-04
 Reference value :  1.67252e-04
 Reference value :  1.67254e-04
 Reference value :  1.67254e-04
 Reference value :  1.67256e-04
 Reference value :  1.67258e-04
 Reference value :  1.67259e-04
 Reference value :  1.67265e-04
 Reference value :  1.67287e-04
 Reference value :  1.67425e-04
 Reference value :  1.67500e-04
 Reference value :  1.67500e-04
 Reference value :  1.67500e-04
 Reference value :  1.67500e-04
 Reference value :  1.67501e-04
 Reference value :  1.67502e-04
 Reference value :  1.67503e-04
 Reference value :  1.67504e-04
 Reference value :  1.67506e-04
 Reference value :  1.67506e-04
 Reference value :  1.67508e-04
 Reference value :  1.67510e-04
 Reference value :  1.67511e-04
 Reference value :  1.67513e-04
 Reference value :  1.67514e-04
 Reference value :  1.67516e-04
 Reference value :  1.67518e-04
 Reference value :  1.67520e-04
 Reference value :  1.67524e-04
 Reference value :  1.67531e-04
 Reference value :  1.67545e-04
 Reference value :  1.67596e-04
 Reference value :  1.67750e-04
 Reference value :  1.67750e-04
 Reference value :  1.67750e-04
 Reference value :  1.67750e-04
 Reference value :  1.67751e-04
 Reference value :  1.67751e-04
 Reference value :  1.67752e-04
 Reference value :  1.67754e-04
 Reference value :  1.67754e-04
 Reference value :  1.67756e-04
 Reference value :  1.67759e-04
 Reference value :  1.67772e-04
 Reference value :  1.67904e-04
 Reference value :  1.68000e-04
 Reference value :  1.68000e-04
 Reference value :  1.68000e-04
 Reference value :  1.68001e-04
 Reference value :  1.68002e-04
 Reference value :  1.68004e-04
 Reference value :  1.68006e-04
 Reference value :  1.68007e-04
 Reference value :  1.68009e-04
 Reference value :  1.68012e-04
 Reference value :  1.68048e-04
 Reference value :  1.68250e-04
 Reference value :  1.68250e-04
 Reference value :  1.68250e-04
 Reference value :  1.68251e-04
 Reference value :  1.68251e-04
 Reference value :  1.68252e-04
 Reference value :  1.68254e-04
 Reference value :  1.68255e-04
 Reference value :  1.68257e-04
 Reference value :  1.68258e-04
 Reference value :  1.68262e-04
 Reference value :  1.68275e-04
 Reference value :  1.68347e-04
 Reference value :  1.68500e-04
 Reference value :  1.68500e-04
 Reference value :  1.68500e-04
 Reference value :  1.68500e-04
 Reference value :  1.68501e-04
 Reference value :  1.68501e-04
 Reference value :  1.68502e-04
 Reference value :  1.68503e-04
 Reference value :  1.68504e-04
 Reference value :  1.68506e-04
 Reference value :  1.68507e-04
 Reference value :  1.68510e-04
 Reference value :  1.68511e-04
 Reference value :  1.68513e-04
 Reference value :  1.68514e-04
 Reference value :  1.68517e-04
 Reference value :  1.68519e-04
 Reference value :  1.68521e-04
 Reference value :  1.68534e-04
 Reference value :  1.68540e-04
 Reference value :  1.68544e-04
 Reference value :  1.68554e-04
 Reference value :  1.68577e-04
 Reference value :  1.68663e-04
 Reference value :  1.68750e-04
 Reference value :  1.68750e-04
 Reference value :  1.68750e-04
 Reference value :  1.68751e-04
 Reference value :  1.68753e-04
 Reference value :  1.68754e-04
 Reference value :  1.68757e-04
 Reference value :  1.68761e-04
 Reference value :  1.68805e-04
 Reference value :  1.69000e-04
 Reference value :  1.69000e-04
 Reference value :  1.69000e-04
 Reference value :  1.69001e-04
 Reference value :  1.69002e-04
 Reference value :  1.69003e-04
 Reference value :  1.69004e-04
 Reference value :  1.69006e-04
 Reference value :  1.69008e-04
 Reference value :  1.69010e-04
 Reference value :  1.69016e-04
 Reference value :  1.69078e-04
 Reference value :  1.69250e-04
 Reference value :  1.69250e-04
 Reference value :  1.69250e-04
 Reference value :  1.69251e-04
 Reference value :  1.69252e-04
 Reference value :  1.69253e-04
 Reference value :  1.69254e-04
 Reference value :  1.69257e-04
 Reference value :  1.69261e-04
 Reference value :  1.69305e-04
 Reference value :  1.69500e-04
 Reference value :  1.69500e-04
 Reference value :  1.69500e-04
 Reference value :  1.69501e-04
 Reference value :  1.69502e-04
 Reference value :  1.69503e-04
 Reference value :  1.69504e-04
 Reference value :  1.69505e-04
 Reference value :  1.69506e-04
 Reference value :  1.69507e-04
 Reference value :  1.69508e-04
 Reference value :  1.69510e-04
 Reference value :  1.69527e-04
 Reference value :  1.69750e-04
 Reference value :  1.69750e-04
 Reference value :  1.69750e-04
 Reference value :  1.69750e-04
 Reference value :  1.69751e-04
 Reference value :  1.69752e-04
 Reference value :  1.69754e-04
 Reference value :  1.69756e-04
 Reference value :  1.69759e-04
 Reference value :  1.69771e-04
 Reference value :  1.69884e-04
 Reference value :  1.70000e-04
 Reference value :  1.70000e-04
 Reference value :  1.70000e-04
 Reference value :  1.70000e-04
 Reference value :  1.70000e-04
 Reference value :  1.70000e-04
 Reference value :  1.70001e-04
 Reference value :  1.70002e-04
 Reference value :  1.70003e-04
 Reference value :  1.70005e-04
 Reference value :  1.70005e-04
 Reference value :  1.70007e-04
 Reference value :  1.70011e-04
 Reference value :  1.70027e-04
 Reference value :  1.70031e-04
 Reference value :  1.70039e-04
 Reference value :  1.70040e-04
 Reference value :  1.70043e-04
 Reference value :  1.70050e-04
 Reference value :  1.70055e-04
 Reference value :  1.70065e-04
 Reference value :  1.70072e-04
 Reference value :  1.70084e-04
 Reference value :  1.70109e-04
 Reference value :  1.70250e-04
 Reference value :  1.70250e-04
 Reference value :  1.70250e-04
 Reference value :  1.70250e-04
 Reference value :  1.70251e-04
 Reference value :  1.70252e-04
 Reference value :  1.70254e-04
 Reference value :  1.70256e-04
 Reference value :  1.70259e-04
 Reference value :  1.70284e-04
 Reference value :  1.70500e-04
 Reference value :  1.70500e-04
 Reference value :  1.70500e-04
 Reference value :  1.70500e-04
 Reference value :  1.70501e-04
 Reference value :  1.70503e-04
 Reference value :  1.70506e-04
 Reference value :  1.70508e-04
 Reference value :  1.70514e-04
 Reference value :  1.70517e-04
 Reference value :  1.70531e-04
 Reference value :  1.70699e-04
 Reference value :  1.70750e-04
 Reference value :  1.70750e-04
 Reference value :  1.70751e-04
 Reference value :  1.70752e-04
 Reference value :  1.70754e-04
 Reference value :  1.70755e-04
 Reference value :  1.70757e-04
 Reference value :  1.70760e-04
 Reference value :  1.70771e-04
 Reference value :  1.70818e-04
 Reference value :  1.71000e-04
 Reference value :  1.71000e-04
 Reference value :  1.71000e-04
 Reference value :  1.71000e-04
 Reference value :  1.71001e-04
 Reference value :  1.71002e-04
 Reference value :  1.71003e-04
 Reference value :  1.71004e-04
 Reference value :  1.71006e-04
 Reference value :  1.71008e-04
 Reference value :  1.71011e-04
 Reference value :  1.71013e-04
 Reference value :  1.71015e-04
 Reference value :  1.71019e-04
 Reference value :  1.71027e-04
 Reference value :  1.71138e-04
 Reference value :  1.71250e-04
 Reference value :  1.71250e-04
 Reference value :  1.71251e-04
 Reference value :  1.71252e-04
 Reference value :  1.71254e-04
 Reference value :  1.71256e-04
 Reference value :  1.71259e-04
 Reference value :  1.71284e-04
 Reference value :  1.71500e-04
 Reference value :  1.71500e-04
 Reference value :  1.71500e-04
 Reference value :  1.71500e-04
 Reference value :  1.71501e-04
 Reference value :  1.71502e-04
 Reference value :  1.71504e-04
 Reference value :  1.71506e-04
 Reference value :  1.71507e-04
 Reference value :  1.71509e-04
 Reference value :  1.71512e-04
 Reference value :  1.71548e-04
 Reference value :  1.71750e-04
 Reference value :  1.71750e-04
 Reference value :  1.71750e-04
 Reference value :  1.71751e-04
 Reference value :  1.71752e-04
 Reference value :  1.71753e-04
 Reference value :  1.71754e-04
 Reference value :  1.71756e-04
 Reference value :  1.71758e-04
 Reference value :  1.71759e-04
 Reference value :  1.71768e-04
 Reference value :  1.71848e-04
 Reference value :  1.72000e-04
 Reference value :  1.72000e-04
 Reference value :  1.72000e-04
 Reference value :  1.72001e-04
 Reference value :  1.72002e-04
 Reference value :  1.72003e-04
 Reference value :  1.72004e-04
 Reference value :  1.72004e-04
 Reference value :  1.72006e-04
 Reference value :  1.72007e-04
 Reference value :  1.72010e-04
 Reference value :  1.72011e-04
 Reference value :  1.72013e-04
 Reference value :  1.72015e-04
 Reference value :  1.72016e-04
 Reference value :  1.72019e-04
 Reference value :  1.72023e-04
 Reference value :  1.72058e-04
 Reference value :  1.72186e-04
 Reference value :  1.72250e-04
 Reference value :  1.72250e-04
 Reference value :  1.72250e-04
 Reference value :  1.72251e-04
 Reference value :  1.72251e-04
 Reference value :  1.72253e-04
 Reference value :  1.72254e-04
 Reference value :  1.72257e-04
 Reference value :  1.72261e-04
 Reference value :  1.72284e-04
 Reference value :  1.72500e-04
 Reference value :  1.72500e-04
 Reference value :  1.72500e-04
 Reference value :  1.72500e-04
 Reference value :  1.72501e-04
 Reference value :  1.72502e-04
 Reference value :  1.72503e-04
 Reference value :  1.72505e-04
 Reference value :  1.72507e-04
 Reference value :  1.72507e-04
 Reference value :  1.72509e-04
 Reference value :  1.72511e-04
 Reference value :  1.72520e-04
 Reference value :  1.72585e-04
 Reference value :  1.72750e-04
 Reference value :  1.72750e-04
 Reference value :  1.72750e-04
 Reference value :  1.72751e-04
 Reference value :  1.72752e-04
 Reference value :  1.72754e-04
 Reference value :  1.72755e-04
 Reference value :  1.72757e-04
 Reference value :  1.72758e-04
 Reference value :  1.72761e-04
 Reference value :  1.72768e-04
 Reference value :  1.72808e-04
 Reference value :  1.73000e-04
 Reference value :  1.73000e-04
 Reference value :  1.73000e-04
 Reference value :  1.73000e-04
 Reference value :  1.73000e-04
 Reference value :  1.73000e-04
 Reference value :  1.73001e-04
 Reference value :  1.73002e-04
 Reference value :  1.73003e-04
 Reference value :  1.73004e-04
 Reference value :  1.73006e-04
 Reference value :  1.73006e-04
 Reference value :  1.73008e-04
 Reference value :  1.73010e-04
 Reference value :  1.73011e-04
 Reference value :  1.73013e-04
 Reference value :  1.73014e-04
 Reference value :  1.73015e-04
 Reference value :  1.73017e-04
 Reference value :  1.73020e-04
 Reference value :  1.73023e-04
 Reference value :  1.73041e-04
 Reference value :  1.73093e-04
 Reference value :  1.73124e-04
 Reference value :  1.73139e-04
 Reference value :  1.73152e-04
 Reference value :  1.73173e-04
 Reference value :  1.73250e-04
 Reference value :  1.73250e-04
 Reference value :  1.73250e-04
 Reference value :  1.73250e-04
 Reference value :  1.73250e-04
 Reference value :  1.73251e-04
 Reference value :  1.73251e-04
 Reference value :  1.73252e-04
 Reference value :  1.73254e-04
 Reference value :  1.73254e-04
 Reference value :  1.73256e-04
 Reference value :  1.73258e-04
 Reference value :  1.73265e-04
 Reference value :  1.73304e-04
 Reference value :  1.73500e-04
 Reference value :  1.73500e-04
 Reference value :  1.73500e-04
 Reference value :  1.73500e-04
 Reference value :  1.73501e-04
 Reference value :  1.73501e-04
 Reference value :  1.73502e-04
 Reference value :  1.73503e-04
 Reference value :  1.73504e-04
 Reference value :  1.73505e-04
 Reference value :  1.73507e-04
 Reference value :  1.73507e-04
 Reference value :  1.73509e-04
 Reference value :  1.73515e-04
 Reference value :  1.73585e-04
 Reference value :  1.73750e-04
 Reference value :  1.73750e-04
 Reference value :  1.73750e-04
 Reference value :  1.73751e-04
 Reference value :  1.73753e-04
 Reference value :  1.73754e-04
 Reference value :  1.73757e-04
 Reference value :  1.73758e-04
 Reference value :  1.73762e-04
 Reference value :  1.73775e-04
 Reference value :  1.73925e-04
 Reference value :  1.74000e-04
 Reference value :  1.74000e-04
 Reference value :  1.74000e-04
 Reference value :  1.74001e-04
 Reference value :  1.74002e-04
 Reference value :  1.74003e-04
 Reference value :  1.74004e-04
 Reference value :  1.74004e-04
 Reference value :  1.74006e-04
 Reference value :  1.74007e-04
 Reference value :  1.74010e-04
 Reference value :  1.74013e-04
 Reference value :  1.74016e-04
 Reference value :  1.74020e-04
 Reference value :  1.74026e-04
 Reference value :  1.74045e-04
 Reference value :  1.74051e-04
 Reference value :  1.74054e-04
 Reference value :  1.74064e-04
 Reference value :  1.74089e-04
 Reference value :  1.74167e-04
 Reference value :  1.74250e-04
 Reference value :  1.74250e-04
 Reference value :  1.74250e-04
 Reference value :  1.74251e-04
 Reference value :  1.74251e-04
 Reference value :  1.74253e-04
 Reference value :  1.74254e-04
 Reference value :  1.74257e-04
 Reference value :  1.74261e-04
 Reference value :  1.74305e-04
 Reference value :  1.74500e-04
 Reference value :  1.74500e-04
 Reference value :  1.74500e-04
 Reference value :  1.74500e-04
 Reference value :  1.74501e-04
 Reference value :  1.74502e-04
 Reference value :  1.74502e-04
 Reference value :  1.74503e-04
 Reference value :  1.74504e-04
 Reference value :  1.74506e-04
 Reference value :  1.74508e-04
 Reference value :  1.74510e-04
 Reference value :  1.74516e-04
 Reference value :  1.74750e-04
 Reference value :  1.74750e-04
 Reference value :  1.74750e-04
 Reference value :  1.74751e-04
 Reference value :  1.74754e-04
 Reference value :  1.74756e-04
 Reference value :  1.74761e-04
 Reference value :  1.74905e-04
 Reference value :  1.75000e-04
 Reference value :  1.75000e-04
 Reference value :  1.75001e-04
 Reference value :  1.75001e-04
 Reference value :  1.75002e-04
 Reference value :  1.75003e-04
 Reference value :  1.75004e-04
 Reference value :  1.75006e-04
 Reference value :  1.75006e-04
 Reference value :  1.75008e-04
 Reference value :  1.75010e-04
 Reference value :  1.75013e-04
 Reference value :  1.75014e-04
 Reference value :  1.75016e-04
 Reference value :  1.75017e-04
 Reference value :  1.75019e-04
 Reference value :  1.75026e-04
 Reference value :  1.75052e-04
 Reference value :  1.75071e-04
 Reference value :  1.75078e-04
 Reference value :  1.75091e-04
 Reference value :  1.75117e-04
 Reference value :  1.75189e-04
 Reference value :  1.75250e-04
 Reference value :  1.75250e-04
 Reference value :  1.75250e-04
 Reference value :  1.75251e-04
 Reference value :  1.75251e-04
 Reference value :  1.75253e-04
 Reference value :  1.75255e-04
 Reference value :  1.75258e-04
 Reference value :  1.75266e-04
 Reference value :  1.75338e-04
 Reference value :  1.75500e-04
 Reference value :  1.75500e-04
 Reference value :  1.75500e-04
 Reference value :  1.75501e-04
 Reference value :  1.75502e-04
 Reference value :  1.75504e-04
 Reference value :  1.75506e-04
 Reference value :  1.75507e-04
 Reference value :  1.75509e-04
 Reference value :  1.75511e-04
 Reference value :  1.75520e-04
 Reference value :  1.75585e-04
 Reference value :  1.75750e-04
 Reference value :  1.75750e-04
 Reference value :  1.75750e-04
 Reference value :  1.75751e-04
 Reference value :  1.75751e-04
 Reference value :  1.75752e-04
 Reference value :  1.75754e-04
 Reference value :  1.75755e-04
 Reference value :  1.75757e-04
 Reference value :  1.75758e-04
 Reference value :  1.75762e-04
 Reference value :  1.75787e-04
 Reference value :  1.76000e-04
 Reference value :  1.76000e-04
 Reference value :  1.76000e-04
 Reference value :  1.76000e-04
 Reference value :  1.76001e-04
 Reference value :  1.76002e-04
 Reference value :  1.76003e-04
 Reference value :  1.76004e-04
 Reference value :  1.76006e-04
 Reference value :  1.76006e-04
 Reference value :  1.76008e-04
 Reference value :  1.76011e-04
 Reference value :  1.76013e-04
 Reference value :  1.76016e-04
 Reference value :  1.76019e-04
 Reference value :  1.76031e-04
 Reference value :  1.76122e-04
 Reference value :  1.76250e-04
 Reference value :  1.76250e-04
 Reference value :  1.76250e-04
 Reference value :  1.76251e-04
 Reference value :  1.76253e-04
 Reference value :  1.76254e-04
 Reference value :  1.76256e-04
 Reference value :  1.76259e-04
 Reference value :  1.76272e-04
 Reference value :  1.76339e-04
 Reference value :  1.76377e-04
 Reference value :  1.76403e-04
 Reference value :  1.76500e-04
 Reference value :  1.76500e-04
 Reference value :  1.76500e-04
 Reference value :  1.76500e-04
 Reference value :  1.76502e-04
 Reference value :  1.76503e-04
 Reference value :  1.76504e-04
 Reference value :  1.76505e-04
 Reference value :  1.76507e-04
 Reference value :  1.76509e-04
 Reference value :  1.76513e-04
 Reference value :  1.76544e-04
 Reference value :  1.76750e-04
 Reference value :  1.76750e-04
 Reference value :  1.76750e-04
 Reference value :  1.76751e-04
 Reference value :  1.76754e-04
 Reference value :  1.76756e-04
 Reference value :  1.76761e-04
 Reference value :  1.76784e-04
 Reference value :  1.77000e-04
 Reference value :  1.77000e-04
 Reference value :  1.77000e-04
 Reference value :  1.77000e-04
 Reference value :  1.77001e-04
 Reference value :  1.77002e-04
 Reference value :  1.77003e-04
 Reference value :  1.77004e-04
 Reference value :  1.77006e-04
 Reference value :  1.77007e-04
 Reference value :  1.77010e-04
 Reference value :  1.77013e-04
 Reference value :  1.77015e-04
 Reference value :  1.77017e-04
 Reference value :  1.77019e-04
 Reference value :  1.77025e-04
 Reference value :  1.77036e-04
 Reference value :  1.77045e-04
 Reference value :  1.77054e-04
 Reference value :  1.77082e-04
 Reference value :  1.77167e-04
 Reference value :  1.77250e-04
 Reference value :  1.77250e-04
 Reference value :  1.77251e-04
 Reference value :  1.77254e-04
 Reference value :  1.77257e-04
 Reference value :  1.77285e-04
 Reference value :  1.77500e-04
 Reference value :  1.77500e-04
 Reference value :  1.77501e-04
 Reference value :  1.77503e-04
 Reference value :  1.77506e-04
 Reference value :  1.77507e-04
 Reference value :  1.77510e-04
 Reference value :  1.77547e-04
 Reference value :  1.77750e-04
 Reference value :  1.77750e-04
 Reference value :  1.77751e-04
 Reference value :  1.77754e-04
 Reference value :  1.77755e-04
 Reference value :  1.77758e-04
 Reference value :  1.77761e-04
 Reference value :  1.77775e-04
 Reference value :  1.78000e-04
 Reference value :  1.78000e-04
 Reference value :  1.78000e-04
 Reference value :  1.78000e-04
 Reference value :  1.78001e-04
 Reference value :  1.78001e-04
 Reference value :  1.78002e-04
 Reference value :  1.78003e-04
 Reference value :  1.78004e-04
 Reference value :  1.78006e-04
 Reference value :  1.78006e-04
 Reference value :  1.78008e-04
 Reference value :  1.78010e-04
 Reference value :  1.78012e-04
 Reference value :  1.78016e-04
 Reference value :  1.78020e-04
 Reference value :  1.78043e-04
 Reference value :  1.78144e-04
 Reference value :  1.78250e-04
 Reference value :  1.78250e-04
 Reference value :  1.78250e-04
 Reference value :  1.78251e-04
 Reference value :  1.78251e-04
 Reference value :  1.78252e-04
 Reference value :  1.78254e-04
 Reference value :  1.78257e-04
 Reference value :  1.78265e-04
 Reference value :  1.78326e-04
 Reference value :  1.78460e-04
 Reference value :  1.78500e-04
No. of Data Rows : 25656
ngspice-44 done
