
Note: Compatibility modes selected: hs a


Circuit: ** sch_path: /home/ece/cace/sar-adc-using-sky130-pdk/runs/run_2025-09-13_01-19-39/parameters/dnl/run_1/sar_output_dnl.sch

option SCALE: Scale is set to 1e-06 for instance and model parameters
option SCALE: Scale is set to 1e-06 for instance and model parameters
option SCALE: Scale is set to 1e-06 for instance and model parameters
option SCALE: Scale is set to 1e-06 for instance and model parameters
Doing analysis at TEMP = 27.000000 and TNOM = 27.000000

Using KLU as Direct Linear Solver
Operating point simulation skipped by 'uic',
  now using transient initial conditions.
 Reference value :  1.00000e-12
 Reference value :  1.08400e-12
 Reference value :  3.13013e-12
 Reference value :  1.34712e-11
 Reference value :  9.93355e-11
 Reference value :  1.09303e-10
 Reference value :  1.83731e-10
 Reference value :  7.05867e-10
 Reference value :  1.46222e-09
 Reference value :  2.64408e-09
 Reference value :  4.46695e-09
 Reference value :  6.46049e-09
 Reference value :  8.26843e-09
 Reference value :  1.04665e-08
 Reference value :  1.25262e-08
 Reference value :  1.42961e-08
 Reference value :  1.66529e-08
 Reference value :  2.67198e-08
 Reference value :  4.19130e-08
 Reference value :  8.78986e-08
 Reference value :  2.50100e-07
 Reference value :  2.50170e-07
 Reference value :  2.50222e-07
 Reference value :  2.50405e-07
 Reference value :  2.50995e-07
 Reference value :  2.52439e-07
 Reference value :  2.54575e-07
 Reference value :  2.56925e-07
 Reference value :  2.60934e-07
 Reference value :  2.86240e-07
 Reference value :  4.95865e-07
 Reference value :  5.00030e-07
 Reference value :  5.00100e-07
 Reference value :  5.00220e-07
 Reference value :  5.00864e-07
 Reference value :  5.01761e-07
 Reference value :  5.02767e-07
 Reference value :  5.04678e-07
 Reference value :  5.09178e-07
 Reference value :  5.13348e-07
 Reference value :  5.18065e-07
 Reference value :  5.44969e-07
 Reference value :  7.50130e-07
 Reference value :  7.50319e-07
 Reference value :  7.51531e-07
 Reference value :  7.53273e-07
 Reference value :  7.54677e-07
 Reference value :  7.56089e-07
 Reference value :  7.57895e-07
 Reference value :  7.65496e-07
 Reference value :  8.34397e-07
 Reference value :  1.00003e-06
 Reference value :  1.00011e-06
 Reference value :  1.00035e-06
 Reference value :  1.00130e-06
 Reference value :  1.00224e-06
 Reference value :  1.00404e-06
 Reference value :  1.00458e-06
 Reference value :  1.00582e-06
 Reference value :  1.00799e-06
 Reference value :  1.01401e-06
 Reference value :  1.01800e-06
 Reference value :  1.02033e-06
 Reference value :  1.02542e-06
 Reference value :  1.05860e-06
 Reference value :  1.22172e-06
 Reference value :  1.25013e-06
 Reference value :  1.25021e-06
 Reference value :  1.25070e-06
 Reference value :  1.25203e-06
 Reference value :  1.25406e-06
 Reference value :  1.25535e-06
 Reference value :  1.25689e-06
 Reference value :  1.26513e-06
 Reference value :  1.28173e-06
 Reference value :  1.30361e-06
 Reference value :  1.31160e-06
 Reference value :  1.32630e-06
 Reference value :  1.34735e-06
 Reference value :  1.38721e-06
 Reference value :  1.50001e-06
 Reference value :  1.50011e-06
 Reference value :  1.50052e-06
 Reference value :  1.50177e-06
 Reference value :  1.50333e-06
 Reference value :  1.50563e-06
 Reference value :  1.50755e-06
 Reference value :  1.51056e-06
 Reference value :  1.51412e-06
 Reference value :  1.56966e-06
 Reference value :  1.75013e-06
 Reference value :  1.75026e-06
 Reference value :  1.75153e-06
 Reference value :  1.75326e-06
 Reference value :  1.75533e-06
 Reference value :  1.75787e-06
 Reference value :  1.76318e-06
 Reference value :  1.82179e-06
 Reference value :  2.00003e-06
 Reference value :  2.00016e-06
 Reference value :  2.00130e-06
 Reference value :  2.00277e-06
 Reference value :  2.00458e-06
 Reference value :  2.00644e-06
 Reference value :  2.01144e-06
 Reference value :  2.01377e-06
 Reference value :  2.01718e-06
 Reference value :  2.02207e-06
 Reference value :  2.03473e-06
 Reference value :  2.04320e-06
 Reference value :  2.10205e-06
 Reference value :  2.25013e-06
 Reference value :  2.25032e-06
 Reference value :  2.25152e-06
 Reference value :  2.25405e-06
 Reference value :  2.25533e-06
 Reference value :  2.25686e-06
 Reference value :  2.26505e-06
 Reference value :  2.33211e-06
 Reference value :  2.50003e-06
 Reference value :  2.50012e-06
 Reference value :  2.50035e-06
 Reference value :  2.50086e-06
 Reference value :  2.50176e-06
 Reference value :  2.50277e-06
 Reference value :  2.50463e-06
 Reference value :  2.50628e-06
 Reference value :  2.50826e-06
 Reference value :  2.51019e-06
 Reference value :  2.51236e-06
 Reference value :  2.53093e-06
 Reference value :  2.66691e-06
 Reference value :  2.75013e-06
 Reference value :  2.75021e-06
 Reference value :  2.75032e-06
 Reference value :  2.75106e-06
 Reference value :  2.75204e-06
 Reference value :  2.75406e-06
 Reference value :  2.75610e-06
 Reference value :  2.75966e-06
 Reference value :  2.78203e-06
 Reference value :  2.98273e-06
 Reference value :  3.00003e-06
 Reference value :  3.00011e-06
 Reference value :  3.00022e-06
 Reference value :  3.00086e-06
 Reference value :  3.00176e-06
 Reference value :  3.00277e-06
 Reference value :  3.00458e-06
 Reference value :  3.00582e-06
 Reference value :  3.00643e-06
 Reference value :  3.00800e-06
 Reference value :  3.01061e-06
 Reference value :  3.01401e-06
 Reference value :  3.01537e-06
 Reference value :  3.01797e-06
 Reference value :  3.02030e-06
 Reference value :  3.02535e-06
 Reference value :  3.04281e-06
 Reference value :  3.13300e-06
 Reference value :  3.25011e-06
 Reference value :  3.25020e-06
 Reference value :  3.25032e-06
 Reference value :  3.25105e-06
 Reference value :  3.25202e-06
 Reference value :  3.25405e-06
 Reference value :  3.25533e-06
 Reference value :  3.25686e-06
 Reference value :  3.26504e-06
 Reference value :  3.33148e-06
 Reference value :  3.50003e-06
 Reference value :  3.50011e-06
 Reference value :  3.50022e-06
 Reference value :  3.50052e-06
 Reference value :  3.50130e-06
 Reference value :  3.50277e-06
 Reference value :  3.50464e-06
 Reference value :  3.50730e-06
 Reference value :  3.50925e-06
 Reference value :  3.51123e-06
 Reference value :  3.51364e-06
 Reference value :  3.53096e-06
 Reference value :  3.66711e-06
 Reference value :  3.75013e-06
 Reference value :  3.75021e-06
 Reference value :  3.75032e-06
 Reference value :  3.75106e-06
 Reference value :  3.75203e-06
 Reference value :  3.75256e-06
 Reference value :  3.75405e-06
 Reference value :  3.75469e-06
 Reference value :  3.75609e-06
 Reference value :  3.75787e-06
 Reference value :  3.77124e-06
 Reference value :  3.83106e-06
 Reference value :  4.00001e-06
 Reference value :  4.00010e-06
 Reference value :  4.00022e-06
 Reference value :  4.00130e-06
 Reference value :  4.00224e-06
 Reference value :  4.00403e-06
 Reference value :  4.00520e-06
 Reference value :  4.00643e-06
 Reference value :  4.01256e-06
 Reference value :  4.01537e-06
 Reference value :  4.01908e-06
 Reference value :  4.02535e-06
 Reference value :  4.05276e-06
 Reference value :  4.07296e-06
 Reference value :  4.08647e-06
 Reference value :  4.10077e-06
 Reference value :  4.11624e-06
 Reference value :  4.16947e-06
 Reference value :  4.25017e-06
 Reference value :  4.25022e-06
 Reference value :  4.25032e-06
 Reference value :  4.25070e-06
 Reference value :  4.25153e-06
 Reference value :  4.25256e-06
 Reference value :  4.25407e-06
 Reference value :  4.25537e-06
 Reference value :  4.25692e-06
 Reference value :  4.26182e-06
 Reference value :  4.28164e-06
 Reference value :  4.38649e-06
 Reference value :  4.50001e-06
 Reference value :  4.50010e-06
 Reference value :  4.50022e-06
 Reference value :  4.50130e-06
 Reference value :  4.50277e-06
 Reference value :  4.50464e-06
 Reference value :  4.50629e-06
 Reference value :  4.50827e-06
 Reference value :  4.51020e-06
 Reference value :  4.51237e-06
 Reference value :  4.53095e-06
 Reference value :  4.75010e-06
 Reference value :  4.75020e-06
 Reference value :  4.75045e-06
 Reference value :  4.75203e-06
 Reference value :  4.75405e-06
 Reference value :  4.75609e-06
 Reference value :  4.75964e-06
 Reference value :  4.79930e-06
 Reference value :  5.00000e-06
 Reference value :  5.00010e-06
 Reference value :  5.00035e-06
 Reference value :  5.00130e-06
 Reference value :  5.00224e-06
 Reference value :  5.00340e-06
 Reference value :  5.00458e-06
 Reference value :  5.00582e-06
 Reference value :  5.00711e-06
 Reference value :  5.01256e-06
 Reference value :  5.01537e-06
 Reference value :  5.01908e-06
 Reference value :  5.02534e-06
 Reference value :  5.04533e-06
 Reference value :  5.06090e-06
 Reference value :  5.07879e-06
 Reference value :  5.11125e-06
 Reference value :  5.14270e-06
 Reference value :  5.16401e-06
 Reference value :  5.20187e-06
 Reference value :  5.25013e-06
 Reference value :  5.25022e-06
 Reference value :  5.25070e-06
 Reference value :  5.25202e-06
 Reference value :  5.25405e-06
 Reference value :  5.25532e-06
 Reference value :  5.25685e-06
 Reference value :  5.26498e-06
 Reference value :  5.38722e-06
 Reference value :  5.50007e-06
 Reference value :  5.50012e-06
 Reference value :  5.50035e-06
 Reference value :  5.50130e-06
 Reference value :  5.50224e-06
 Reference value :  5.50340e-06
 Reference value :  5.50463e-06
 Reference value :  5.50629e-06
 Reference value :  5.50730e-06
 Reference value :  5.51020e-06
 Reference value :  5.51617e-06
 Reference value :  5.75011e-06
 Reference value :  5.75022e-06
 Reference value :  5.75070e-06
 Reference value :  5.75203e-06
 Reference value :  5.75405e-06
 Reference value :  5.75538e-06
 Reference value :  5.75695e-06
 Reference value :  5.76189e-06
 Reference value :  5.79919e-06
 Reference value :  6.00000e-06
 Reference value :  6.00010e-06
 Reference value :  6.00052e-06
 Reference value :  6.00176e-06
 Reference value :  6.00276e-06
 Reference value :  6.00458e-06
 Reference value :  6.00582e-06
 Reference value :  6.00901e-06
 Reference value :  6.01402e-06
 Reference value :  6.01796e-06
 Reference value :  6.02160e-06
 Reference value :  6.03804e-06
 Reference value :  6.05258e-06
 Reference value :  6.07690e-06
 Reference value :  6.23735e-06
 Reference value :  6.25017e-06
 Reference value :  6.25045e-06
 Reference value :  6.25256e-06
 Reference value :  6.25468e-06
 Reference value :  6.25992e-06
 Reference value :  6.33423e-06
 Reference value :  6.45236e-06
 Reference value :  6.50001e-06
 Reference value :  6.50012e-06
 Reference value :  6.50086e-06
 Reference value :  6.50224e-06
 Reference value :  6.50400e-06
 Reference value :  6.50534e-06
 Reference value :  6.50827e-06
 Reference value :  6.51124e-06
 Reference value :  6.55047e-06
 Reference value :  6.69779e-06
 Reference value :  6.75017e-06
 Reference value :  6.75032e-06
 Reference value :  6.75105e-06
 Reference value :  6.75256e-06
 Reference value :  6.75468e-06
 Reference value :  6.75704e-06
 Reference value :  6.76551e-06
 Reference value :  6.79984e-06
 Reference value :  7.00000e-06
 Reference value :  7.00007e-06
 Reference value :  7.00016e-06
 Reference value :  7.00130e-06
 Reference value :  7.00277e-06
 Reference value :  7.00458e-06
 Reference value :  7.00643e-06
 Reference value :  7.01256e-06
 Reference value :  7.01536e-06
 Reference value :  7.01907e-06
 Reference value :  7.02532e-06
 Reference value :  7.03607e-06
 Reference value :  7.04677e-06
 Reference value :  7.06911e-06
 Reference value :  7.19802e-06
 Reference value :  7.25020e-06
 Reference value :  7.25045e-06
 Reference value :  7.25201e-06
 Reference value :  7.25326e-06
 Reference value :  7.25532e-06
 Reference value :  7.25785e-06
 Reference value :  7.27100e-06
 Reference value :  7.38627e-06
 Reference value :  7.50003e-06
 Reference value :  7.50012e-06
 Reference value :  7.50052e-06
 Reference value :  7.50177e-06
 Reference value :  7.50270e-06
 Reference value :  7.50485e-06
 Reference value :  7.50674e-06
 Reference value :  7.50753e-06
 Reference value :  7.50946e-06
 Reference value :  7.51277e-06
 Reference value :  7.54201e-06
 Reference value :  7.75013e-06
 Reference value :  7.75026e-06
 Reference value :  7.75070e-06
 Reference value :  7.75201e-06
 Reference value :  7.75403e-06
 Reference value :  7.75603e-06
 Reference value :  7.75995e-06
 Reference value :  7.77515e-06
 Reference value :  7.91763e-06
 Reference value :  8.00007e-06
 Reference value :  8.00012e-06
 Reference value :  8.00035e-06
 Reference value :  8.00130e-06
 Reference value :  8.00224e-06
 Reference value :  8.00340e-06
 Reference value :  8.00457e-06
 Reference value :  8.00583e-06
 Reference value :  8.00644e-06
 Reference value :  8.00802e-06
 Reference value :  8.01001e-06
 Reference value :  8.01171e-06
 Reference value :  8.01631e-06
 Reference value :  8.02391e-06
 Reference value :  8.03235e-06
 Reference value :  8.05011e-06
 Reference value :  8.06341e-06
 Reference value :  8.10138e-06
 Reference value :  8.25010e-06
 Reference value :  8.25017e-06
 Reference value :  8.25022e-06
 Reference value :  8.25045e-06
 Reference value :  8.25153e-06
 Reference value :  8.25256e-06
 Reference value :  8.25517e-06
 Reference value :  8.25861e-06
 Reference value :  8.27233e-06
 Reference value :  8.35776e-06
 Reference value :  8.50000e-06
 Reference value :  8.50000e-06
 Reference value :  8.50010e-06
 Reference value :  8.50018e-06
 Reference value :  8.50128e-06
 Reference value :  8.50303e-06
 Reference value :  8.50443e-06
 Reference value :  8.50570e-06
 Reference value :  8.50785e-06
 Reference value :  8.52212e-06
 Reference value :  8.52295e-06
 Reference value :  8.53024e-06
 Reference value :  8.53504e-06
 Reference value :  8.53912e-06
 Reference value :  8.54079e-06
 Reference value :  8.54215e-06
 Reference value :  8.54690e-06
 Reference value :  8.55662e-06
 Reference value :  8.56357e-06
 Reference value :  8.60256e-06
 Reference value :  8.75010e-06
 Reference value :  8.75020e-06
 Reference value :  8.75032e-06
 Reference value :  8.75105e-06
 Reference value :  8.75203e-06
 Reference value :  8.75406e-06
 Reference value :  8.75600e-06
 Reference value :  8.75776e-06
 Reference value :  8.77049e-06
 Reference value :  8.98783e-06
 Reference value :  9.00007e-06
 Reference value :  9.00016e-06
 Reference value :  9.00086e-06
 Reference value :  9.00176e-06
 Reference value :  9.00339e-06
 Reference value :  9.00461e-06
 Reference value :  9.00738e-06
 Reference value :  9.00876e-06
 Reference value :  9.01310e-06
 Reference value :  9.01644e-06
 Reference value :  9.02044e-06
 Reference value :  9.03316e-06
 Reference value :  9.17319e-06
 Reference value :  9.25013e-06
 Reference value :  9.25021e-06
 Reference value :  9.25045e-06
 Reference value :  9.25152e-06
 Reference value :  9.25254e-06
 Reference value :  9.25464e-06
 Reference value :  9.25604e-06
 Reference value :  9.25965e-06
 Reference value :  9.29967e-06
 Reference value :  9.50000e-06
 Reference value :  9.50007e-06
 Reference value :  9.50012e-06
 Reference value :  9.50035e-06
 Reference value :  9.50130e-06
 Reference value :  9.50224e-06
 Reference value :  9.50403e-06
 Reference value :  9.50520e-06
 Reference value :  9.50642e-06
 Reference value :  9.51058e-06
 Reference value :  9.51401e-06
 Reference value :  9.51673e-06
 Reference value :  9.51911e-06
 Reference value :  9.52541e-06
 Reference value :  9.63447e-06
 Reference value :  9.75013e-06
 Reference value :  9.75026e-06
 Reference value :  9.75105e-06
 Reference value :  9.75254e-06
 Reference value :  9.75465e-06
 Reference value :  9.75599e-06
 Reference value :  9.75776e-06
 Reference value :  9.76502e-06
 Reference value :  9.78116e-06
 Reference value :  9.79287e-06
 Reference value :  9.80381e-06
 Reference value :  9.81532e-06
 Reference value :  9.83226e-06
 Reference value :  9.84892e-06
 Reference value :  9.86447e-06
 Reference value :  9.90181e-06
 Reference value :  1.00000e-05
 Reference value :  1.00001e-05
 Reference value :  1.00001e-05
 Reference value :  1.00003e-05
 Reference value :  1.00013e-05
 Reference value :  1.00022e-05
 Reference value :  1.00041e-05
 Reference value :  1.00056e-05
 Reference value :  1.00075e-05
 Reference value :  1.00095e-05
 Reference value :  1.00116e-05
 Reference value :  1.00141e-05
 Reference value :  1.00283e-05
 Reference value :  1.01150e-05
 Reference value :  1.02501e-05
 Reference value :  1.02502e-05
 Reference value :  1.02503e-05
 Reference value :  1.02507e-05
 Reference value :  1.02515e-05
 Reference value :  1.02525e-05
 Reference value :  1.02546e-05
 Reference value :  1.02569e-05
 Reference value :  1.02599e-05
 Reference value :  1.02690e-05
 Reference value :  1.03217e-05
 Reference value :  1.05000e-05
 Reference value :  1.05001e-05
 Reference value :  1.05002e-05
 Reference value :  1.05009e-05
 Reference value :  1.05018e-05
 Reference value :  1.05028e-05
 Reference value :  1.05040e-05
 Reference value :  1.05046e-05
 Reference value :  1.05058e-05
 Reference value :  1.05071e-05
 Reference value :  1.05105e-05
 Reference value :  1.05115e-05
 Reference value :  1.05138e-05
 Reference value :  1.05161e-05
 Reference value :  1.05184e-05
 Reference value :  1.05209e-05
 Reference value :  1.05267e-05
 Reference value :  1.05298e-05
 Reference value :  1.05336e-05
 Reference value :  1.05385e-05
 Reference value :  1.05435e-05
 Reference value :  1.05586e-05
 Reference value :  1.06025e-05
 Reference value :  1.07501e-05
 Reference value :  1.07502e-05
 Reference value :  1.07502e-05
 Reference value :  1.07504e-05
 Reference value :  1.07511e-05
 Reference value :  1.07520e-05
 Reference value :  1.07533e-05
 Reference value :  1.07547e-05
 Reference value :  1.07560e-05
 Reference value :  1.07578e-05
 Reference value :  1.07709e-05
 Reference value :  1.08849e-05
 Reference value :  1.10000e-05
 Reference value :  1.10001e-05
 Reference value :  1.10002e-05
 Reference value :  1.10009e-05
 Reference value :  1.10018e-05
 Reference value :  1.10028e-05
 Reference value :  1.10040e-05
 Reference value :  1.10046e-05
 Reference value :  1.10063e-05
 Reference value :  1.10083e-05
 Reference value :  1.10102e-05
 Reference value :  1.10124e-05
 Reference value :  1.10309e-05
 Reference value :  1.12501e-05
 Reference value :  1.12502e-05
 Reference value :  1.12502e-05
 Reference value :  1.12504e-05
 Reference value :  1.12515e-05
 Reference value :  1.12526e-05
 Reference value :  1.12541e-05
 Reference value :  1.12554e-05
 Reference value :  1.12579e-05
 Reference value :  1.12655e-05
 Reference value :  1.13310e-05
 Reference value :  1.15000e-05
 Reference value :  1.15001e-05
 Reference value :  1.15002e-05
 Reference value :  1.15005e-05
 Reference value :  1.15013e-05
 Reference value :  1.15022e-05
 Reference value :  1.15034e-05
 Reference value :  1.15046e-05
 Reference value :  1.15058e-05
 Reference value :  1.15064e-05
 Reference value :  1.15090e-05
 Reference value :  1.15140e-05
 Reference value :  1.15167e-05
 Reference value :  1.15191e-05
 Reference value :  1.15234e-05
 Reference value :  1.15423e-05
 Reference value :  1.16278e-05
 Reference value :  1.17501e-05
 Reference value :  1.17502e-05
 Reference value :  1.17502e-05
 Reference value :  1.17504e-05
 Reference value :  1.17515e-05
 Reference value :  1.17526e-05
 Reference value :  1.17541e-05
 Reference value :  1.17554e-05
 Reference value :  1.17569e-05
 Reference value :  1.17618e-05
 Reference value :  1.17815e-05
 Reference value :  1.19805e-05
 Reference value :  1.20000e-05
 Reference value :  1.20001e-05
 Reference value :  1.20002e-05
 Reference value :  1.20009e-05
 Reference value :  1.20018e-05
 Reference value :  1.20022e-05
 Reference value :  1.20034e-05
 Reference value :  1.20046e-05
 Reference value :  1.20063e-05
 Reference value :  1.20083e-05
 Reference value :  1.20102e-05
 Reference value :  1.20124e-05
 Reference value :  1.20309e-05
 Reference value :  1.21670e-05
 Reference value :  1.22501e-05
 Reference value :  1.22502e-05
 Reference value :  1.22503e-05
 Reference value :  1.22511e-05
 Reference value :  1.22520e-05
 Reference value :  1.22541e-05
 Reference value :  1.22554e-05
 Reference value :  1.22579e-05
 Reference value :  1.22655e-05
 Reference value :  1.23310e-05
 Reference value :  1.25000e-05
 Reference value :  1.25001e-05
 Reference value :  1.25002e-05
 Reference value :  1.25005e-05
 Reference value :  1.25013e-05
 Reference value :  1.25022e-05
 Reference value :  1.25040e-05
 Reference value :  1.25052e-05
 Reference value :  1.25064e-05
 Reference value :  1.25106e-05
 Reference value :  1.25140e-05
 Reference value :  1.25167e-05
 Reference value :  1.25191e-05
 Reference value :  1.25234e-05
 Reference value :  1.25339e-05
 Reference value :  1.25538e-05
 Reference value :  1.25780e-05
 Reference value :  1.25936e-05
 Reference value :  1.26056e-05
 Reference value :  1.26240e-05
 Reference value :  1.26519e-05
 Reference value :  1.27050e-05
 Reference value :  1.27501e-05
 Reference value :  1.27502e-05
 Reference value :  1.27503e-05
 Reference value :  1.27511e-05
 Reference value :  1.27526e-05
 Reference value :  1.27547e-05
 Reference value :  1.27569e-05
 Reference value :  1.27618e-05
 Reference value :  1.27815e-05
 Reference value :  1.29804e-05
 Reference value :  1.30001e-05
 Reference value :  1.30002e-05
 Reference value :  1.30005e-05
 Reference value :  1.30013e-05
 Reference value :  1.30022e-05
 Reference value :  1.30034e-05
 Reference value :  1.30046e-05
 Reference value :  1.30073e-05
 Reference value :  1.30093e-05
 Reference value :  1.30112e-05
 Reference value :  1.30162e-05
 Reference value :  1.30504e-05
 Reference value :  1.32501e-05
 Reference value :  1.32502e-05
 Reference value :  1.32503e-05
 Reference value :  1.32507e-05
 Reference value :  1.32520e-05
 Reference value :  1.32533e-05
 Reference value :  1.32547e-05
 Reference value :  1.32571e-05
 Reference value :  1.32620e-05
 Reference value :  1.33310e-05
 Reference value :  1.35000e-05
 Reference value :  1.35001e-05
 Reference value :  1.35005e-05
 Reference value :  1.35013e-05
 Reference value :  1.35022e-05
 Reference value :  1.35040e-05
 Reference value :  1.35052e-05
 Reference value :  1.35064e-05
 Reference value :  1.35090e-05
 Reference value :  1.35140e-05
 Reference value :  1.35167e-05
 Reference value :  1.35191e-05
 Reference value :  1.35234e-05
 Reference value :  1.35330e-05
 Reference value :  1.35575e-05
 Reference value :  1.35765e-05
 Reference value :  1.36116e-05
 Reference value :  1.36231e-05
 Reference value :  1.36385e-05
 Reference value :  1.36603e-05
 Reference value :  1.37501e-05
 Reference value :  1.37503e-05
 Reference value :  1.37507e-05
 Reference value :  1.37515e-05
 Reference value :  1.37526e-05
 Reference value :  1.37541e-05
 Reference value :  1.37554e-05
 Reference value :  1.37569e-05
 Reference value :  1.37618e-05
 Reference value :  1.38848e-05
 Reference value :  1.40000e-05
 Reference value :  1.40001e-05
 Reference value :  1.40005e-05
 Reference value :  1.40013e-05
 Reference value :  1.40022e-05
 Reference value :  1.40040e-05
 Reference value :  1.40053e-05
 Reference value :  1.40083e-05
 Reference value :  1.40112e-05
 Reference value :  1.40212e-05
 Reference value :  1.42501e-05
 Reference value :  1.42502e-05
 Reference value :  1.42504e-05
 Reference value :  1.42515e-05
 Reference value :  1.42526e-05
 Reference value :  1.42541e-05
 Reference value :  1.42554e-05
 Reference value :  1.42597e-05
 Reference value :  1.42821e-05
 Reference value :  1.44778e-05
 Reference value :  1.45001e-05
 Reference value :  1.45002e-05
 Reference value :  1.45005e-05
 Reference value :  1.45013e-05
 Reference value :  1.45022e-05
 Reference value :  1.45040e-05
 Reference value :  1.45046e-05
 Reference value :  1.45058e-05
 Reference value :  1.45064e-05
 Reference value :  1.45090e-05
 Reference value :  1.45126e-05
 Reference value :  1.45140e-05
 Reference value :  1.45167e-05
 Reference value :  1.45191e-05
 Reference value :  1.45216e-05
 Reference value :  1.45253e-05
 Reference value :  1.45383e-05
 Reference value :  1.45439e-05
 Reference value :  1.45478e-05
 Reference value :  1.45562e-05
 Reference value :  1.45746e-05
 Reference value :  1.46313e-05
 Reference value :  1.47501e-05
 Reference value :  1.47502e-05
 Reference value :  1.47504e-05
 Reference value :  1.47520e-05
 Reference value :  1.47540e-05
 Reference value :  1.47554e-05
 Reference value :  1.47582e-05
 Reference value :  1.47624e-05
 Reference value :  1.47838e-05
 Reference value :  1.47933e-05
 Reference value :  1.48233e-05
 Reference value :  1.48578e-05
 Reference value :  1.49442e-05
 Reference value :  1.50000e-05
 Reference value :  1.50001e-05
 Reference value :  1.50002e-05
 Reference value :  1.50009e-05
 Reference value :  1.50018e-05
 Reference value :  1.50028e-05
 Reference value :  1.50046e-05
 Reference value :  1.50063e-05
 Reference value :  1.50083e-05
 Reference value :  1.50102e-05
 Reference value :  1.50124e-05
 Reference value :  1.50212e-05
 Reference value :  1.50892e-05
 Reference value :  1.52501e-05
 Reference value :  1.52502e-05
 Reference value :  1.52503e-05
 Reference value :  1.52511e-05
 Reference value :  1.52520e-05
 Reference value :  1.52541e-05
 Reference value :  1.52547e-05
 Reference value :  1.52570e-05
 Reference value :  1.52712e-05
 Reference value :  1.55000e-05
 Reference value :  1.55004e-05
 Reference value :  1.55016e-05
 Reference value :  1.55026e-05
 Reference value :  1.55044e-05
 Reference value :  1.55066e-05
 Reference value :  1.55110e-05
 Reference value :  1.55143e-05
 Reference value :  1.55168e-05
 Reference value :  1.55191e-05
 Reference value :  1.55255e-05
 Reference value :  1.55374e-05
 Reference value :  1.55460e-05
 Reference value :  1.55644e-05
 Reference value :  1.55860e-05
 Reference value :  1.57001e-05
 Reference value :  1.57501e-05
 Reference value :  1.57502e-05
 Reference value :  1.57503e-05
 Reference value :  1.57507e-05
 Reference value :  1.57515e-05
 Reference value :  1.57520e-05
 Reference value :  1.57533e-05
 Reference value :  1.57547e-05
 Reference value :  1.57571e-05
 Reference value :  1.57623e-05
 Reference value :  1.58020e-05
 Reference value :  1.60000e-05
 Reference value :  1.60001e-05
 Reference value :  1.60001e-05
 Reference value :  1.60003e-05
 Reference value :  1.60013e-05
 Reference value :  1.60022e-05
 Reference value :  1.60049e-05
 Reference value :  1.60075e-05
 Reference value :  1.60106e-05
 Reference value :  1.60141e-05
 Reference value :  1.60421e-05
 Reference value :  1.62132e-05
 Reference value :  1.62501e-05
 Reference value :  1.62502e-05
 Reference value :  1.62503e-05
 Reference value :  1.62507e-05
 Reference value :  1.62515e-05
 Reference value :  1.62525e-05
 Reference value :  1.62540e-05
 Reference value :  1.62553e-05
 Reference value :  1.62570e-05
 Reference value :  1.62600e-05
 Reference value :  1.62655e-05
 Reference value :  1.62990e-05
 Reference value :  1.65000e-05
 Reference value :  1.65001e-05
 Reference value :  1.65002e-05
 Reference value :  1.65013e-05
 Reference value :  1.65022e-05
 Reference value :  1.65040e-05
 Reference value :  1.65052e-05
 Reference value :  1.65064e-05
 Reference value :  1.65090e-05
 Reference value :  1.65108e-05
 Reference value :  1.65140e-05
 Reference value :  1.65205e-05
 Reference value :  1.65261e-05
 Reference value :  1.65323e-05
 Reference value :  1.65429e-05
 Reference value :  1.65660e-05
 Reference value :  1.66459e-05
 Reference value :  1.67501e-05
 Reference value :  1.67502e-05
 Reference value :  1.67503e-05
 Reference value :  1.67507e-05
 Reference value :  1.67520e-05
 Reference value :  1.67542e-05
 Reference value :  1.67585e-05
 Reference value :  1.67721e-05
 Reference value :  1.68550e-05
 Reference value :  1.70000e-05
 Reference value :  1.70000e-05
 Reference value :  1.70000e-05
 Reference value :  1.70000e-05
 Reference value :  1.70001e-05
 Reference value :  1.70001e-05
 Reference value :  1.70004e-05
 Reference value :  1.70019e-05
 Reference value :  1.70030e-05
 Reference value :  1.70044e-05
 Reference value :  1.70057e-05
 Reference value :  1.70079e-05
 Reference value :  1.70221e-05
 Reference value :  1.70288e-05
 Reference value :  1.70337e-05
 Reference value :  1.70374e-05
 Reference value :  1.70407e-05
 Reference value :  1.70458e-05
 Reference value :  1.70540e-05
 Reference value :  1.70663e-05
 Reference value :  1.70977e-05
 Reference value :  1.71916e-05
 Reference value :  1.72502e-05
 Reference value :  1.72502e-05
 Reference value :  1.72507e-05
 Reference value :  1.72520e-05
 Reference value :  1.72540e-05
 Reference value :  1.72560e-05
 Reference value :  1.72594e-05
 Reference value :  1.72974e-05
 Reference value :  1.75000e-05
 Reference value :  1.75001e-05
 Reference value :  1.75002e-05
 Reference value :  1.75005e-05
 Reference value :  1.75018e-05
 Reference value :  1.75040e-05
 Reference value :  1.75074e-05
 Reference value :  1.75088e-05
 Reference value :  1.75131e-05
 Reference value :  1.75164e-05
 Reference value :  1.75229e-05
 Reference value :  1.75632e-05
 Reference value :  1.77501e-05
 Reference value :  1.77502e-05
 Reference value :  1.77503e-05
 Reference value :  1.77511e-05
 Reference value :  1.77520e-05
 Reference value :  1.77540e-05
 Reference value :  1.77560e-05
 Reference value :  1.77596e-05
 Reference value :  1.77819e-05
 Reference value :  1.78868e-05
 Reference value :  1.80001e-05
 Reference value :  1.80001e-05
 Reference value :  1.80002e-05
 Reference value :  1.80007e-05
 Reference value :  1.80016e-05
 Reference value :  1.80026e-05
 Reference value :  1.80037e-05
 Reference value :  1.80050e-05
 Reference value :  1.80062e-05
 Reference value :  1.80085e-05
 Reference value :  1.80121e-05
 Reference value :  1.80136e-05
 Reference value :  1.80165e-05
 Reference value :  1.80190e-05
 Reference value :  1.80216e-05
 Reference value :  1.80343e-05
 Reference value :  1.80839e-05
 Reference value :  1.82501e-05
 Reference value :  1.82502e-05
 Reference value :  1.82502e-05
 Reference value :  1.82504e-05
 Reference value :  1.82510e-05
 Reference value :  1.82520e-05
 Reference value :  1.82540e-05
 Reference value :  1.82553e-05
 Reference value :  1.82568e-05
 Reference value :  1.82617e-05
 Reference value :  1.82812e-05
 Reference value :  1.82924e-05
 Reference value :  1.83155e-05
 Reference value :  1.83319e-05
 Reference value :  1.83491e-05
 Reference value :  1.83757e-05
 Reference value :  1.84526e-05
 Reference value :  1.85001e-05
 Reference value :  1.85002e-05
 Reference value :  1.85005e-05
 Reference value :  1.85013e-05
 Reference value :  1.85022e-05
 Reference value :  1.85041e-05
 Reference value :  1.85056e-05
 Reference value :  1.85075e-05
 Reference value :  1.85095e-05
 Reference value :  1.85116e-05
 Reference value :  1.85141e-05
 Reference value :  1.85283e-05
 Reference value :  1.86146e-05
 Reference value :  1.87501e-05
 Reference value :  1.87502e-05
 Reference value :  1.87504e-05
 Reference value :  1.87515e-05
 Reference value :  1.87533e-05
 Reference value :  1.87553e-05
 Reference value :  1.87588e-05
 Reference value :  1.87690e-05
 Reference value :  1.89170e-05
 Reference value :  1.90001e-05
 Reference value :  1.90003e-05
 Reference value :  1.90018e-05
 Reference value :  1.90034e-05
 Reference value :  1.90046e-05
 Reference value :  1.90058e-05
 Reference value :  1.90071e-05
 Reference value :  1.90105e-05
 Reference value :  1.90114e-05
 Reference value :  1.90138e-05
 Reference value :  1.90161e-05
 Reference value :  1.90184e-05
 Reference value :  1.90209e-05
 Reference value :  1.90266e-05
 Reference value :  1.90292e-05
 Reference value :  1.90315e-05
 Reference value :  1.90377e-05
 Reference value :  1.90475e-05
 Reference value :  1.90719e-05
 Reference value :  1.92501e-05
 Reference value :  1.92502e-05
 Reference value :  1.92502e-05
 Reference value :  1.92504e-05
 Reference value :  1.92515e-05
 Reference value :  1.92526e-05
 Reference value :  1.92547e-05
 Reference value :  1.92569e-05
 Reference value :  1.92618e-05
 Reference value :  1.92987e-05
 Reference value :  1.95003e-05
 Reference value :  1.95012e-05
 Reference value :  1.95025e-05
 Reference value :  1.95043e-05
 Reference value :  1.95071e-05
 Reference value :  1.95088e-05
 Reference value :  1.95108e-05
 Reference value :  1.95134e-05
 Reference value :  1.95269e-05
 Reference value :  1.97164e-05
 Reference value :  1.97501e-05
 Reference value :  1.97502e-05
 Reference value :  1.97503e-05
 Reference value :  1.97507e-05
 Reference value :  1.97515e-05
 Reference value :  1.97526e-05
 Reference value :  1.97541e-05
 Reference value :  1.97554e-05
 Reference value :  1.97571e-05
 Reference value :  1.97620e-05
 Reference value :  1.97998e-05
 Reference value :  2.00000e-05
 Reference value :  2.00001e-05
 Reference value :  2.00001e-05
 Reference value :  2.00003e-05
 Reference value :  2.00013e-05
 Reference value :  2.00028e-05
 Reference value :  2.00046e-05
 Reference value :  2.00058e-05
 Reference value :  2.00071e-05
 Reference value :  2.00106e-05
 Reference value :  2.00140e-05
 Reference value :  2.00167e-05
 Reference value :  2.00191e-05
 Reference value :  2.00234e-05
 Reference value :  2.00423e-05
 Reference value :  2.01270e-05
 Reference value :  2.02394e-05
 Reference value :  2.02501e-05
 Reference value :  2.02502e-05
 Reference value :  2.02503e-05
 Reference value :  2.02507e-05
 Reference value :  2.02515e-05
 Reference value :  2.02520e-05
 Reference value :  2.02541e-05
 Reference value :  2.02554e-05
 Reference value :  2.02569e-05
 Reference value :  2.02619e-05
 Reference value :  2.02818e-05
 Reference value :  2.03850e-05
 Reference value :  2.05003e-05
 Reference value :  2.05014e-05
 Reference value :  2.05022e-05
 Reference value :  2.05032e-05
 Reference value :  2.05051e-05
 Reference value :  2.05082e-05
 Reference value :  2.05122e-05
 Reference value :  2.06345e-05
 Reference value :  2.07501e-05
 Reference value :  2.07502e-05
 Reference value :  2.07503e-05
 Reference value :  2.07507e-05
 Reference value :  2.07520e-05
 Reference value :  2.07540e-05
 Reference value :  2.07553e-05
 Reference value :  2.07578e-05
 Reference value :  2.07707e-05
 Reference value :  2.08888e-05
 Reference value :  2.10000e-05
 Reference value :  2.10001e-05
 Reference value :  2.10003e-05
 Reference value :  2.10013e-05
 Reference value :  2.10022e-05
 Reference value :  2.10034e-05
 Reference value :  2.10046e-05
 Reference value :  2.10064e-05
 Reference value :  2.10106e-05
 Reference value :  2.10140e-05
 Reference value :  2.10180e-05
 Reference value :  2.10216e-05
 Reference value :  2.10339e-05
 Reference value :  2.10689e-05
 Reference value :  2.10779e-05
 Reference value :  2.10921e-05
 Reference value :  2.11218e-05
 Reference value :  2.12203e-05
 Reference value :  2.12501e-05
 Reference value :  2.12502e-05
 Reference value :  2.12504e-05
 Reference value :  2.12511e-05
 Reference value :  2.12520e-05
 Reference value :  2.12533e-05
 Reference value :  2.12547e-05
 Reference value :  2.12569e-05
 Reference value :  2.12617e-05
 Reference value :  2.12814e-05
 Reference value :  2.13862e-05
 Reference value :  2.15000e-05
 Reference value :  2.15001e-05
 Reference value :  2.15001e-05
 Reference value :  2.15002e-05
 Reference value :  2.15003e-05
 Reference value :  2.15009e-05
 Reference value :  2.15013e-05
 Reference value :  2.15022e-05
 Reference value :  2.15034e-05
 Reference value :  2.15046e-05
 Reference value :  2.15063e-05
 Reference value :  2.15083e-05
 Reference value :  2.15102e-05
 Reference value :  2.15124e-05
 Reference value :  2.15309e-05
 Reference value :  2.17501e-05
 Reference value :  2.17502e-05
 Reference value :  2.17507e-05
 Reference value :  2.17520e-05
 Reference value :  2.17541e-05
 Reference value :  2.17561e-05
 Reference value :  2.17655e-05
 Reference value :  2.18846e-05
 Reference value :  2.20004e-05
 Reference value :  2.20016e-05
 Reference value :  2.20029e-05
 Reference value :  2.20047e-05
 Reference value :  2.20065e-05
 Reference value :  2.20108e-05
 Reference value :  2.20142e-05
 Reference value :  2.20166e-05
 Reference value :  2.20201e-05
 Reference value :  2.20332e-05
 Reference value :  2.20521e-05
 Reference value :  2.20639e-05
 Reference value :  2.20776e-05
 Reference value :  2.21069e-05
 Reference value :  2.21167e-05
 Reference value :  2.21293e-05
 Reference value :  2.21410e-05
 Reference value :  2.22212e-05
 Reference value :  2.22502e-05
 Reference value :  2.22503e-05
 Reference value :  2.22520e-05
 Reference value :  2.22541e-05
 Reference value :  2.22560e-05
 Reference value :  2.22596e-05
 Reference value :  2.22988e-05
 Reference value :  2.25000e-05
 Reference value :  2.25001e-05
 Reference value :  2.25005e-05
 Reference value :  2.25018e-05
 Reference value :  2.25034e-05
 Reference value :  2.25053e-05
 Reference value :  2.25083e-05
 Reference value :  2.25102e-05
 Reference value :  2.25124e-05
 Reference value :  2.25504e-05
 Reference value :  2.27501e-05
 Reference value :  2.27502e-05
 Reference value :  2.27507e-05
 Reference value :  2.27520e-05
 Reference value :  2.27541e-05
 Reference value :  2.27561e-05
 Reference value :  2.27596e-05
 Reference value :  2.27817e-05
 Reference value :  2.30000e-05
 Reference value :  2.30004e-05
 Reference value :  2.30016e-05
 Reference value :  2.30026e-05
 Reference value :  2.30050e-05
 Reference value :  2.30066e-05
 Reference value :  2.30111e-05
 Reference value :  2.30144e-05
 Reference value :  2.30181e-05
 Reference value :  2.30204e-05
 Reference value :  2.30255e-05
 Reference value :  2.30453e-05
 Reference value :  2.30540e-05
 Reference value :  2.30941e-05
 Reference value :  2.31684e-05
 Reference value :  2.32501e-05
 Reference value :  2.32502e-05
 Reference value :  2.32504e-05
 Reference value :  2.32515e-05
 Reference value :  2.32532e-05
 Reference value :  2.32553e-05
 Reference value :  2.32577e-05
 Reference value :  2.32803e-05
 Reference value :  2.35000e-05
 Reference value :  2.35001e-05
 Reference value :  2.35005e-05
 Reference value :  2.35018e-05
 Reference value :  2.35034e-05
 Reference value :  2.35046e-05
 Reference value :  2.35073e-05
 Reference value :  2.35093e-05
 Reference value :  2.35102e-05
 Reference value :  2.35124e-05
 Reference value :  2.35213e-05
 Reference value :  2.36667e-05
 Reference value :  2.37501e-05
 Reference value :  2.37502e-05
 Reference value :  2.37503e-05
 Reference value :  2.37507e-05
 Reference value :  2.37520e-05
 Reference value :  2.37541e-05
 Reference value :  2.37547e-05
 Reference value :  2.37561e-05
 Reference value :  2.37579e-05
 Reference value :  2.37653e-05
 Reference value :  2.37990e-05
 Reference value :  2.39765e-05
 Reference value :  2.40000e-05
 Reference value :  2.40001e-05
 Reference value :  2.40002e-05
 Reference value :  2.40005e-05
 Reference value :  2.40013e-05
 Reference value :  2.40022e-05
 Reference value :  2.40040e-05
 Reference value :  2.40052e-05
 Reference value :  2.40064e-05
 Reference value :  2.40090e-05
 Reference value :  2.40126e-05
 Reference value :  2.40154e-05
 Reference value :  2.40191e-05
 Reference value :  2.40253e-05
 Reference value :  2.40430e-05
 Reference value :  2.40554e-05
 Reference value :  2.40855e-05
 Reference value :  2.41649e-05
 Reference value :  2.42501e-05
 Reference value :  2.42502e-05
 Reference value :  2.42503e-05
 Reference value :  2.42507e-05
 Reference value :  2.42515e-05
 Reference value :  2.42520e-05
 Reference value :  2.42533e-05
 Reference value :  2.42554e-05
 Reference value :  2.42599e-05
 Reference value :  2.43021e-05
 Reference value :  2.45000e-05
 Reference value :  2.45002e-05
 Reference value :  2.45013e-05
 Reference value :  2.45027e-05
 Reference value :  2.45049e-05
 Reference value :  2.45056e-05
 Reference value :  2.45075e-05
 Reference value :  2.45095e-05
 Reference value :  2.45128e-05
 Reference value :  2.45283e-05
 Reference value :  2.47501e-05
 Reference value :  2.47502e-05
 Reference value :  2.47504e-05
 Reference value :  2.47510e-05
 Reference value :  2.47520e-05
 Reference value :  2.47533e-05
 Reference value :  2.47546e-05
 Reference value :  2.47560e-05
 Reference value :  2.47578e-05
 Reference value :  2.47599e-05
 Reference value :  2.47632e-05
 Reference value :  2.47751e-05
 Reference value :  2.47987e-05
 Reference value :  2.49176e-05
 Reference value :  2.50000e-05
 Reference value :  2.50001e-05
 Reference value :  2.50003e-05
 Reference value :  2.50013e-05
 Reference value :  2.50022e-05
 Reference value :  2.50040e-05
 Reference value :  2.50052e-05
 Reference value :  2.50064e-05
 Reference value :  2.50090e-05
 Reference value :  2.50108e-05
 Reference value :  2.50140e-05
 Reference value :  2.50181e-05
 Reference value :  2.50224e-05
 Reference value :  2.50260e-05
 Reference value :  2.50349e-05
 Reference value :  2.50623e-05
 Reference value :  2.52501e-05
 Reference value :  2.52502e-05
 Reference value :  2.52502e-05
 Reference value :  2.52504e-05
 Reference value :  2.52515e-05
 Reference value :  2.52525e-05
 Reference value :  2.52542e-05
 Reference value :  2.52572e-05
 Reference value :  2.52628e-05
 Reference value :  2.52939e-05
 Reference value :  2.55000e-05
 Reference value :  2.55000e-05
 Reference value :  2.55000e-05
 Reference value :  2.55000e-05
 Reference value :  2.55001e-05
 Reference value :  2.55002e-05
 Reference value :  2.55008e-05
 Reference value :  2.55019e-05
 Reference value :  2.55030e-05
 Reference value :  2.55044e-05
 Reference value :  2.55057e-05
 Reference value :  2.55071e-05
 Reference value :  2.55113e-05
 Reference value :  2.55288e-05
 Reference value :  2.55337e-05
 Reference value :  2.55374e-05
 Reference value :  2.55433e-05
 Reference value :  2.55483e-05
 Reference value :  2.55540e-05
 Reference value :  2.55575e-05
 Reference value :  2.55735e-05
 Reference value :  2.56178e-05
 Reference value :  2.57501e-05
 Reference value :  2.57502e-05
 Reference value :  2.57502e-05
 Reference value :  2.57504e-05
 Reference value :  2.57515e-05
 Reference value :  2.57520e-05
 Reference value :  2.57533e-05
 Reference value :  2.57540e-05
 Reference value :  2.57546e-05
 Reference value :  2.57560e-05
 Reference value :  2.57577e-05
 Reference value :  2.57648e-05
 Reference value :  2.57974e-05
 Reference value :  2.59970e-05
 Reference value :  2.60000e-05
 Reference value :  2.60001e-05
 Reference value :  2.60002e-05
 Reference value :  2.60005e-05
 Reference value :  2.60013e-05
 Reference value :  2.60022e-05
 Reference value :  2.60034e-05
 Reference value :  2.60040e-05
 Reference value :  2.60046e-05
 Reference value :  2.60063e-05
 Reference value :  2.60088e-05
 Reference value :  2.60117e-05
 Reference value :  2.60150e-05
 Reference value :  2.60181e-05
 Reference value :  2.60205e-05
 Reference value :  2.60332e-05
 Reference value :  2.61011e-05
 Reference value :  2.62501e-05
 Reference value :  2.62502e-05
 Reference value :  2.62503e-05
 Reference value :  2.62507e-05
 Reference value :  2.62515e-05
 Reference value :  2.62520e-05
 Reference value :  2.62533e-05
 Reference value :  2.62546e-05
 Reference value :  2.62560e-05
 Reference value :  2.62579e-05
 Reference value :  2.62619e-05
 Reference value :  2.62819e-05
 Reference value :  2.63868e-05
 Reference value :  2.65001e-05
 Reference value :  2.65001e-05
 Reference value :  2.65002e-05
 Reference value :  2.65012e-05
 Reference value :  2.65026e-05
 Reference value :  2.65044e-05
 Reference value :  2.65058e-05
 Reference value :  2.65071e-05
 Reference value :  2.65107e-05
 Reference value :  2.65140e-05
 Reference value :  2.65165e-05
 Reference value :  2.65189e-05
 Reference value :  2.65214e-05
 Reference value :  2.65282e-05
 Reference value :  2.65586e-05
 Reference value :  2.66348e-05
 Reference value :  2.67501e-05
 Reference value :  2.67502e-05
 Reference value :  2.67507e-05
 Reference value :  2.67520e-05
 Reference value :  2.67540e-05
 Reference value :  2.67560e-05
 Reference value :  2.67595e-05
 Reference value :  2.67939e-05
 Reference value :  2.68196e-05
 Reference value :  2.68378e-05
 Reference value :  2.68548e-05
 Reference value :  2.68764e-05
 Reference value :  2.69096e-05
 Reference value :  2.70000e-05
 Reference value :  2.70001e-05
 Reference value :  2.70002e-05
 Reference value :  2.70013e-05
 Reference value :  2.70022e-05
 Reference value :  2.70041e-05
 Reference value :  2.70068e-05
 Reference value :  2.70075e-05
 Reference value :  2.70095e-05
 Reference value :  2.70116e-05
 Reference value :  2.70128e-05
 Reference value :  2.70168e-05
 Reference value :  2.70283e-05
 Reference value :  2.71152e-05
 Reference value :  2.72501e-05
 Reference value :  2.72501e-05
 Reference value :  2.72502e-05
 Reference value :  2.72503e-05
 Reference value :  2.72511e-05
 Reference value :  2.72520e-05
 Reference value :  2.72540e-05
 Reference value :  2.72553e-05
 Reference value :  2.72578e-05
 Reference value :  2.72612e-05
 Reference value :  2.72752e-05
 Reference value :  2.73587e-05
 Reference value :  2.75000e-05
 Reference value :  2.75001e-05
 Reference value :  2.75002e-05
 Reference value :  2.75009e-05
 Reference value :  2.75013e-05
 Reference value :  2.75022e-05
 Reference value :  2.75034e-05
 Reference value :  2.75046e-05
 Reference value :  2.75058e-05
 Reference value :  2.75064e-05
 Reference value :  2.75080e-05
 Reference value :  2.75105e-05
 Reference value :  2.75114e-05
 Reference value :  2.75138e-05
 Reference value :  2.75161e-05
 Reference value :  2.75184e-05
 Reference value :  2.75209e-05
 Reference value :  2.75266e-05
 Reference value :  2.75313e-05
 Reference value :  2.75375e-05
 Reference value :  2.75516e-05
 Reference value :  2.76264e-05
 Reference value :  2.77501e-05
 Reference value :  2.77502e-05
 Reference value :  2.77503e-05
 Reference value :  2.77507e-05
 Reference value :  2.77515e-05
 Reference value :  2.77525e-05
 Reference value :  2.77540e-05
 Reference value :  2.77553e-05
 Reference value :  2.77568e-05
 Reference value :  2.77617e-05
 Reference value :  2.77983e-05
 Reference value :  2.79988e-05
 Reference value :  2.80000e-05
 Reference value :  2.80001e-05
 Reference value :  2.80003e-05
 Reference value :  2.80012e-05
 Reference value :  2.80021e-05
 Reference value :  2.80032e-05
 Reference value :  2.80045e-05
 Reference value :  2.80063e-05
 Reference value :  2.80074e-05
 Reference value :  2.80096e-05
 Reference value :  2.80106e-05
 Reference value :  2.80131e-05
 Reference value :  2.80173e-05
 Reference value :  2.80381e-05
 Reference value :  2.81610e-05
 Reference value :  2.82501e-05
 Reference value :  2.82502e-05
 Reference value :  2.82503e-05
 Reference value :  2.82507e-05
 Reference value :  2.82515e-05
 Reference value :  2.82525e-05
 Reference value :  2.82540e-05
 Reference value :  2.82553e-05
 Reference value :  2.82578e-05
 Reference value :  2.82653e-05
 Reference value :  2.82995e-05
 Reference value :  2.84987e-05
 Reference value :  2.85000e-05
 Reference value :  2.85001e-05
 Reference value :  2.85003e-05
 Reference value :  2.85013e-05
 Reference value :  2.85022e-05
 Reference value :  2.85040e-05
 Reference value :  2.85046e-05
 Reference value :  2.85058e-05
 Reference value :  2.85064e-05
 Reference value :  2.85090e-05
 Reference value :  2.85126e-05
 Reference value :  2.85140e-05
 Reference value :  2.85154e-05
 Reference value :  2.85180e-05
 Reference value :  2.85191e-05
 Reference value :  2.85216e-05
 Reference value :  2.85253e-05
 Reference value :  2.85575e-05
 Reference value :  2.87403e-05
 Reference value :  2.87502e-05
 Reference value :  2.87503e-05
 Reference value :  2.87515e-05
 Reference value :  2.87533e-05
 Reference value :  2.87547e-05
 Reference value :  2.87569e-05
 Reference value :  2.87652e-05
 Reference value :  2.88305e-05
 Reference value :  2.90003e-05
 Reference value :  2.90014e-05
 Reference value :  2.90021e-05
 Reference value :  2.90038e-05
 Reference value :  2.90061e-05
 Reference value :  2.90082e-05
 Reference value :  2.90101e-05
 Reference value :  2.90122e-05
 Reference value :  2.90442e-05
 Reference value :  2.92501e-05
 Reference value :  2.92502e-05
 Reference value :  2.92504e-05
 Reference value :  2.92515e-05
 Reference value :  2.92525e-05
 Reference value :  2.92540e-05
 Reference value :  2.92553e-05
 Reference value :  2.92578e-05
 Reference value :  2.92649e-05
 Reference value :  2.92989e-05
 Reference value :  2.95000e-05
 Reference value :  2.95001e-05
 Reference value :  2.95002e-05
 Reference value :  2.95009e-05
 Reference value :  2.95018e-05
 Reference value :  2.95028e-05
 Reference value :  2.95046e-05
 Reference value :  2.95058e-05
 Reference value :  2.95064e-05
 Reference value :  2.95090e-05
 Reference value :  2.95126e-05
 Reference value :  2.95140e-05
 Reference value :  2.95154e-05
 Reference value :  2.95180e-05
 Reference value :  2.95203e-05
 Reference value :  2.95253e-05
 Reference value :  2.95423e-05
 Reference value :  2.95701e-05
 Reference value :  2.96190e-05
 Reference value :  2.96760e-05
 Reference value :  2.97501e-05
 Reference value :  2.97502e-05
 Reference value :  2.97503e-05
 Reference value :  2.97507e-05
 Reference value :  2.97515e-05
 Reference value :  2.97526e-05
 Reference value :  2.97541e-05
 Reference value :  2.97547e-05
 Reference value :  2.97560e-05
 Reference value :  2.97569e-05
 Reference value :  2.97596e-05
 Reference value :  2.97711e-05
 Reference value :  2.99804e-05
 Reference value :  3.00001e-05
 Reference value :  3.00002e-05
 Reference value :  3.00013e-05
 Reference value :  3.00022e-05
 Reference value :  3.00034e-05
 Reference value :  3.00046e-05
 Reference value :  3.00063e-05
 Reference value :  3.00083e-05
 Reference value :  3.00112e-05
 Reference value :  3.00212e-05
 Reference value :  3.02501e-05
 Reference value :  3.02502e-05
 Reference value :  3.02504e-05
 Reference value :  3.02515e-05
 Reference value :  3.02533e-05
 Reference value :  3.02547e-05
 Reference value :  3.02579e-05
 Reference value :  3.02821e-05
 Reference value :  3.05004e-05
 Reference value :  3.05016e-05
 Reference value :  3.05024e-05
 Reference value :  3.05035e-05
 Reference value :  3.05053e-05
 Reference value :  3.05059e-05
 Reference value :  3.05071e-05
 Reference value :  3.05091e-05
 Reference value :  3.05126e-05
 Reference value :  3.05141e-05
 Reference value :  3.05154e-05
 Reference value :  3.05178e-05
 Reference value :  3.05201e-05
 Reference value :  3.05231e-05
 Reference value :  3.05337e-05
 Reference value :  3.05464e-05
 Reference value :  3.05518e-05
 Reference value :  3.05632e-05
 Reference value :  3.05820e-05
 Reference value :  3.05972e-05
 Reference value :  3.06062e-05
 Reference value :  3.06180e-05
 Reference value :  3.06293e-05
 Reference value :  3.06481e-05
 Reference value :  3.07136e-05
 Reference value :  3.07501e-05
 Reference value :  3.07502e-05
 Reference value :  3.07503e-05
 Reference value :  3.07507e-05
 Reference value :  3.07515e-05
 Reference value :  3.07520e-05
 Reference value :  3.07532e-05
 Reference value :  3.07546e-05
 Reference value :  3.07560e-05
 Reference value :  3.07568e-05
 Reference value :  3.07615e-05
 Reference value :  3.07806e-05
 Reference value :  3.08869e-05
 Reference value :  3.10000e-05
 Reference value :  3.10001e-05
 Reference value :  3.10002e-05
 Reference value :  3.10005e-05
 Reference value :  3.10013e-05
 Reference value :  3.10022e-05
 Reference value :  3.10034e-05
 Reference value :  3.10046e-05
 Reference value :  3.10063e-05
 Reference value :  3.10073e-05
 Reference value :  3.10083e-05
 Reference value :  3.10102e-05
 Reference value :  3.10124e-05
 Reference value :  3.10212e-05
 Reference value :  3.10892e-05
 Reference value :  3.12501e-05
 Reference value :  3.12502e-05
 Reference value :  3.12502e-05
 Reference value :  3.12503e-05
 Reference value :  3.12507e-05
 Reference value :  3.12515e-05
 Reference value :  3.12526e-05
 Reference value :  3.12541e-05
 Reference value :  3.12554e-05
 Reference value :  3.12570e-05
 Reference value :  3.12619e-05
 Reference value :  3.12817e-05
 Reference value :  3.13836e-05
 Reference value :  3.15000e-05
 Reference value :  3.15001e-05
 Reference value :  3.15001e-05
 Reference value :  3.15003e-05
 Reference value :  3.15013e-05
 Reference value :  3.15022e-05
 Reference value :  3.15034e-05
 Reference value :  3.15046e-05
 Reference value :  3.15058e-05
 Reference value :  3.15071e-05
 Reference value :  3.15126e-05
 Reference value :  3.15140e-05
 Reference value :  3.15167e-05
 Reference value :  3.15191e-05
 Reference value :  3.15234e-05
 Reference value :  3.15379e-05
 Reference value :  3.15479e-05
 Reference value :  3.15618e-05
 Reference value :  3.16049e-05
 Reference value :  3.16386e-05
 Reference value :  3.16472e-05
 Reference value :  3.16820e-05
 Reference value :  3.17394e-05
 Reference value :  3.17501e-05
 Reference value :  3.17502e-05
 Reference value :  3.17504e-05
 Reference value :  3.17515e-05
 Reference value :  3.17525e-05
 Reference value :  3.17540e-05
 Reference value :  3.17553e-05
 Reference value :  3.17578e-05
 Reference value :  3.17706e-05
 Reference value :  3.18861e-05
 Reference value :  3.20001e-05
 Reference value :  3.20002e-05
 Reference value :  3.20013e-05
 Reference value :  3.20028e-05
 Reference value :  3.20046e-05
 Reference value :  3.20073e-05
 Reference value :  3.20102e-05
 Reference value :  3.20136e-05
 Reference value :  3.20893e-05
 Reference value :  3.22501e-05
 Reference value :  3.22503e-05
 Reference value :  3.22507e-05
 Reference value :  3.22520e-05
 Reference value :  3.22541e-05
 Reference value :  3.22561e-05
 Reference value :  3.22597e-05
 Reference value :  3.22821e-05
 Reference value :  3.25000e-05
 Reference value :  3.25001e-05
 Reference value :  3.25003e-05
 Reference value :  3.25013e-05
 Reference value :  3.25028e-05
 Reference value :  3.25046e-05
 Reference value :  3.25058e-05
 Reference value :  3.25071e-05
 Reference value :  3.25106e-05
 Reference value :  3.25140e-05
 Reference value :  3.25180e-05
 Reference value :  3.25203e-05
 Reference value :  3.25253e-05
 Reference value :  3.25456e-05
 Reference value :  3.25617e-05
 Reference value :  3.25912e-05
 Reference value :  3.27428e-05
 Reference value :  3.27501e-05
 Reference value :  3.27502e-05
 Reference value :  3.27504e-05
 Reference value :  3.27515e-05
 Reference value :  3.27525e-05
 Reference value :  3.27540e-05
 Reference value :  3.27553e-05
 Reference value :  3.27569e-05
 Reference value :  3.27596e-05
 Reference value :  3.27710e-05
 Reference value :  3.28862e-05
 Reference value :  3.30000e-05
 Reference value :  3.30001e-05
 Reference value :  3.30005e-05
 Reference value :  3.30013e-05
 Reference value :  3.30022e-05
 Reference value :  3.30041e-05
 Reference value :  3.30056e-05
 Reference value :  3.30075e-05
 Reference value :  3.30095e-05
 Reference value :  3.30116e-05
 Reference value :  3.30128e-05
 Reference value :  3.30207e-05
 Reference value :  3.31147e-05
 Reference value :  3.32501e-05
 Reference value :  3.32503e-05
 Reference value :  3.32510e-05
 Reference value :  3.32520e-05
 Reference value :  3.32546e-05
 Reference value :  3.32578e-05
 Reference value :  3.32632e-05
 Reference value :  3.33216e-05
 Reference value :  3.35013e-05
 Reference value :  3.35053e-05
 Reference value :  3.35075e-05
 Reference value :  3.35097e-05
 Reference value :  3.35130e-05
 Reference value :  3.35158e-05
 Reference value :  3.35202e-05
 Reference value :  3.35268e-05
 Reference value :  3.35938e-05
 Reference value :  3.37501e-05
 Reference value :  3.37502e-05
 Reference value :  3.37503e-05
 Reference value :  3.37511e-05
 Reference value :  3.37520e-05
 Reference value :  3.37540e-05
 Reference value :  3.37570e-05
 Reference value :  3.37656e-05
 Reference value :  3.38436e-05
 Reference value :  3.40000e-05
 Reference value :  3.40000e-05
 Reference value :  3.40000e-05
 Reference value :  3.40001e-05
 Reference value :  3.40001e-05
 Reference value :  3.40002e-05
 Reference value :  3.40004e-05
 Reference value :  3.40013e-05
 Reference value :  3.40025e-05
 Reference value :  3.40037e-05
 Reference value :  3.40051e-05
 Reference value :  3.40057e-05
 Reference value :  3.40071e-05
 Reference value :  3.40151e-05
 Reference value :  3.40288e-05
 Reference value :  3.40337e-05
 Reference value :  3.40407e-05
 Reference value :  3.40433e-05
 Reference value :  3.40483e-05
 Reference value :  3.40575e-05
 Reference value :  3.40738e-05
 Reference value :  3.41186e-05
 Reference value :  3.41913e-05
 Reference value :  3.42501e-05
 Reference value :  3.42502e-05
 Reference value :  3.42503e-05
 Reference value :  3.42504e-05
 Reference value :  3.42511e-05
 Reference value :  3.42520e-05
 Reference value :  3.42533e-05
 Reference value :  3.42546e-05
 Reference value :  3.42560e-05
 Reference value :  3.42577e-05
 Reference value :  3.42649e-05
 Reference value :  3.42977e-05
 Reference value :  3.45000e-05
 Reference value :  3.45001e-05
 Reference value :  3.45001e-05
 Reference value :  3.45003e-05
 Reference value :  3.45013e-05
 Reference value :  3.45022e-05
 Reference value :  3.45034e-05
 Reference value :  3.45046e-05
 Reference value :  3.45074e-05
 Reference value :  3.45088e-05
 Reference value :  3.45131e-05
 Reference value :  3.45164e-05
 Reference value :  3.45205e-05
 Reference value :  3.45332e-05
 Reference value :  3.46011e-05
 Reference value :  3.47501e-05
 Reference value :  3.47502e-05
 Reference value :  3.47503e-05
 Reference value :  3.47507e-05
 Reference value :  3.47520e-05
 Reference value :  3.47533e-05
 Reference value :  3.47546e-05
 Reference value :  3.47560e-05
 Reference value :  3.47579e-05
 Reference value :  3.47654e-05
 Reference value :  3.47996e-05
 Reference value :  3.49964e-05
 Reference value :  3.50000e-05
 Reference value :  3.50001e-05
 Reference value :  3.50005e-05
 Reference value :  3.50013e-05
 Reference value :  3.50022e-05
 Reference value :  3.50040e-05
 Reference value :  3.50046e-05
 Reference value :  3.50058e-05
 Reference value :  3.50064e-05
 Reference value :  3.50090e-05
 Reference value :  3.50140e-05
 Reference value :  3.50167e-05
 Reference value :  3.50191e-05
 Reference value :  3.50235e-05
 Reference value :  3.50585e-05
 Reference value :  3.52501e-05
 Reference value :  3.52502e-05
 Reference value :  3.52502e-05
 Reference value :  3.52504e-05
 Reference value :  3.52515e-05
 Reference value :  3.52520e-05
 Reference value :  3.52533e-05
 Reference value :  3.52547e-05
 Reference value :  3.52569e-05
 Reference value :  3.52651e-05
 Reference value :  3.52941e-05
 Reference value :  3.53120e-05
 Reference value :  3.53402e-05
 Reference value :  3.53594e-05
 Reference value :  3.53885e-05
 Reference value :  3.54660e-05
 Reference value :  3.55001e-05
 Reference value :  3.55002e-05
 Reference value :  3.55005e-05
 Reference value :  3.55013e-05
 Reference value :  3.55022e-05
 Reference value :  3.55033e-05
 Reference value :  3.55049e-05
 Reference value :  3.55068e-05
 Reference value :  3.55075e-05
 Reference value :  3.55095e-05
 Reference value :  3.55116e-05
 Reference value :  3.55141e-05
 Reference value :  3.55283e-05
 Reference value :  3.56150e-05
 Reference value :  3.57501e-05
 Reference value :  3.57502e-05
 Reference value :  3.57503e-05
 Reference value :  3.57511e-05
 Reference value :  3.57520e-05
 Reference value :  3.57540e-05
 Reference value :  3.57553e-05
 Reference value :  3.57569e-05
 Reference value :  3.57588e-05
 Reference value :  3.57612e-05
 Reference value :  3.57690e-05
 Reference value :  3.57988e-05
 Reference value :  3.59179e-05
 Reference value :  3.60015e-05
 Reference value :  3.60061e-05
 Reference value :  3.60088e-05
 Reference value :  3.60114e-05
 Reference value :  3.60124e-05
 Reference value :  3.60146e-05
 Reference value :  3.60164e-05
 Reference value :  3.60185e-05
 Reference value :  3.60219e-05
 Reference value :  3.60254e-05
 Reference value :  3.60275e-05
 Reference value :  3.60292e-05
 Reference value :  3.60349e-05
 Reference value :  3.60448e-05
 Reference value :  3.60574e-05
 Reference value :  3.61147e-05
 Reference value :  3.62501e-05
 Reference value :  3.62502e-05
 Reference value :  3.62503e-05
 Reference value :  3.62504e-05
 Reference value :  3.62511e-05
 Reference value :  3.62520e-05
 Reference value :  3.62533e-05
 Reference value :  3.62547e-05
 Reference value :  3.62560e-05
 Reference value :  3.62578e-05
 Reference value :  3.62650e-05
 Reference value :  3.62984e-05
 Reference value :  3.64976e-05
 Reference value :  3.65000e-05
 Reference value :  3.65001e-05
 Reference value :  3.65002e-05
 Reference value :  3.65009e-05
 Reference value :  3.65022e-05
 Reference value :  3.65046e-05
 Reference value :  3.65074e-05
 Reference value :  3.65106e-05
 Reference value :  3.65144e-05
 Reference value :  3.66047e-05
 Reference value :  3.67502e-05
 Reference value :  3.67503e-05
 Reference value :  3.67515e-05
 Reference value :  3.67533e-05
 Reference value :  3.67546e-05
 Reference value :  3.67570e-05
 Reference value :  3.67619e-05
 Reference value :  3.67819e-05
 Reference value :  3.68871e-05
 Reference value :  3.70000e-05
 Reference value :  3.70001e-05
 Reference value :  3.70001e-05
 Reference value :  3.70003e-05
 Reference value :  3.70013e-05
 Reference value :  3.70022e-05
 Reference value :  3.70040e-05
 Reference value :  3.70046e-05
 Reference value :  3.70058e-05
 Reference value :  3.70071e-05
 Reference value :  3.70106e-05
 Reference value :  3.70140e-05
 Reference value :  3.70154e-05
 Reference value :  3.70180e-05
 Reference value :  3.70191e-05
 Reference value :  3.70216e-05
 Reference value :  3.70253e-05
 Reference value :  3.70339e-05
 Reference value :  3.70575e-05
 Reference value :  3.71270e-05
 Reference value :  3.72414e-05
 Reference value :  3.72501e-05
 Reference value :  3.72502e-05
 Reference value :  3.72502e-05
 Reference value :  3.72503e-05
 Reference value :  3.72507e-05
 Reference value :  3.72515e-05
 Reference value :  3.72520e-05
 Reference value :  3.72533e-05
 Reference value :  3.72547e-05
 Reference value :  3.72560e-05
 Reference value :  3.72579e-05
 Reference value :  3.72653e-05
 Reference value :  3.72992e-05
 Reference value :  3.74802e-05
 Reference value :  3.75000e-05
 Reference value :  3.75001e-05
 Reference value :  3.75001e-05
 Reference value :  3.75002e-05
 Reference value :  3.75009e-05
 Reference value :  3.75018e-05
 Reference value :  3.75022e-05
 Reference value :  3.75040e-05
 Reference value :  3.75053e-05
 Reference value :  3.75073e-05
 Reference value :  3.75093e-05
 Reference value :  3.75102e-05
 Reference value :  3.75124e-05
 Reference value :  3.75212e-05
 Reference value :  3.77501e-05
 Reference value :  3.77502e-05
 Reference value :  3.77503e-05
 Reference value :  3.77515e-05
 Reference value :  3.77533e-05
 Reference value :  3.77547e-05
 Reference value :  3.77570e-05
 Reference value :  3.77597e-05
 Reference value :  3.77715e-05
 Reference value :  3.78310e-05
 Reference value :  3.80000e-05
 Reference value :  3.80001e-05
 Reference value :  3.80001e-05
 Reference value :  3.80002e-05
 Reference value :  3.80009e-05
 Reference value :  3.80013e-05
 Reference value :  3.80022e-05
 Reference value :  3.80034e-05
 Reference value :  3.80046e-05
 Reference value :  3.80058e-05
 Reference value :  3.80071e-05
 Reference value :  3.80106e-05
 Reference value :  3.80140e-05
 Reference value :  3.80167e-05
 Reference value :  3.80191e-05
 Reference value :  3.80234e-05
 Reference value :  3.80339e-05
 Reference value :  3.80715e-05
 Reference value :  3.81052e-05
 Reference value :  3.81680e-05
 Reference value :  3.82501e-05
 Reference value :  3.82502e-05
 Reference value :  3.82503e-05
 Reference value :  3.82511e-05
 Reference value :  3.82520e-05
 Reference value :  3.82541e-05
 Reference value :  3.82554e-05
 Reference value :  3.82569e-05
 Reference value :  3.82619e-05
 Reference value :  3.82992e-05
 Reference value :  3.85000e-05
 Reference value :  3.85003e-05
 Reference value :  3.85014e-05
 Reference value :  3.85022e-05
 Reference value :  3.85032e-05
 Reference value :  3.85044e-05
 Reference value :  3.85061e-05
 Reference value :  3.85082e-05
 Reference value :  3.85101e-05
 Reference value :  3.85123e-05
 Reference value :  3.85288e-05
 Reference value :  3.86343e-05
 Reference value :  3.87501e-05
 Reference value :  3.87502e-05
 Reference value :  3.87503e-05
 Reference value :  3.87510e-05
 Reference value :  3.87520e-05
 Reference value :  3.87532e-05
 Reference value :  3.87546e-05
 Reference value :  3.87560e-05
 Reference value :  3.87578e-05
 Reference value :  3.87649e-05
 Reference value :  3.88319e-05
 Reference value :  3.90000e-05
 Reference value :  3.90001e-05
 Reference value :  3.90002e-05
 Reference value :  3.90005e-05
 Reference value :  3.90013e-05
 Reference value :  3.90022e-05
 Reference value :  3.90034e-05
 Reference value :  3.90046e-05
 Reference value :  3.90058e-05
 Reference value :  3.90071e-05
 Reference value :  3.90106e-05
 Reference value :  3.90140e-05
 Reference value :  3.90167e-05
 Reference value :  3.90191e-05
 Reference value :  3.90234e-05
 Reference value :  3.90339e-05
 Reference value :  3.90473e-05
 Reference value :  3.90581e-05
 Reference value :  3.90637e-05
 Reference value :  3.90855e-05
 Reference value :  3.91039e-05
 Reference value :  3.91170e-05
 Reference value :  3.91806e-05
 Reference value :  3.92501e-05
 Reference value :  3.92502e-05
 Reference value :  3.92507e-05
 Reference value :  3.92520e-05
 Reference value :  3.92541e-05
 Reference value :  3.92554e-05
 Reference value :  3.92569e-05
 Reference value :  3.92652e-05
 Reference value :  3.93305e-05
 Reference value :  3.95000e-05
 Reference value :  3.95001e-05
 Reference value :  3.95002e-05
 Reference value :  3.95009e-05
 Reference value :  3.95018e-05
 Reference value :  3.95028e-05
 Reference value :  3.95046e-05
 Reference value :  3.95063e-05
 Reference value :  3.95083e-05
 Reference value :  3.95102e-05
 Reference value :  3.95124e-05
 Reference value :  3.95309e-05
 Reference value :  3.96669e-05
 Reference value :  3.97501e-05
 Reference value :  3.97502e-05
 Reference value :  3.97503e-05
 Reference value :  3.97511e-05
 Reference value :  3.97520e-05
 Reference value :  3.97541e-05
 Reference value :  3.97554e-05
 Reference value :  3.97570e-05
 Reference value :  3.97597e-05
 Reference value :  3.97715e-05
 Reference value :  3.98310e-05
 Reference value :  4.00000e-05
 Reference value :  4.00001e-05
 Reference value :  4.00002e-05
 Reference value :  4.00009e-05
 Reference value :  4.00013e-05
 Reference value :  4.00022e-05
 Reference value :  4.00034e-05
 Reference value :  4.00046e-05
 Reference value :  4.00058e-05
 Reference value :  4.00064e-05
 Reference value :  4.00080e-05
 Reference value :  4.00106e-05
 Reference value :  4.00126e-05
 Reference value :  4.00140e-05
 Reference value :  4.00154e-05
 Reference value :  4.00179e-05
 Reference value :  4.00191e-05
 Reference value :  4.00216e-05
 Reference value :  4.00285e-05
 Reference value :  4.00442e-05
 Reference value :  4.00530e-05
 Reference value :  4.00626e-05
 Reference value :  4.00888e-05
 Reference value :  4.00974e-05
 Reference value :  4.01065e-05
 Reference value :  4.01301e-05
 Reference value :  4.01491e-05
 Reference value :  4.02501e-05
 Reference value :  4.02502e-05
 Reference value :  4.02503e-05
 Reference value :  4.02507e-05
 Reference value :  4.02515e-05
 Reference value :  4.02520e-05
 Reference value :  4.02533e-05
 Reference value :  4.02547e-05
 Reference value :  4.02569e-05
 Reference value :  4.02595e-05
 Reference value :  4.02707e-05
 Reference value :  4.03305e-05
 Reference value :  4.04974e-05
 Reference value :  4.05000e-05
 Reference value :  4.05001e-05
 Reference value :  4.05001e-05
 Reference value :  4.05002e-05
 Reference value :  4.05003e-05
 Reference value :  4.05013e-05
 Reference value :  4.05022e-05
 Reference value :  4.05034e-05
 Reference value :  4.05046e-05
 Reference value :  4.05063e-05
 Reference value :  4.05083e-05
 Reference value :  4.05102e-05
 Reference value :  4.05136e-05
 Reference value :  4.05504e-05
 Reference value :  4.07501e-05
 Reference value :  4.07502e-05
 Reference value :  4.07503e-05
 Reference value :  4.07507e-05
 Reference value :  4.07520e-05
 Reference value :  4.07541e-05
 Reference value :  4.07547e-05
 Reference value :  4.07561e-05
 Reference value :  4.07597e-05
 Reference value :  4.07715e-05
 Reference value :  4.08310e-05
 Reference value :  4.10004e-05
 Reference value :  4.10016e-05
 Reference value :  4.10024e-05
 Reference value :  4.10042e-05
 Reference value :  4.10060e-05
 Reference value :  4.10080e-05
 Reference value :  4.10127e-05
 Reference value :  4.10143e-05
 Reference value :  4.10166e-05
 Reference value :  4.10190e-05
 Reference value :  4.10233e-05
 Reference value :  4.10323e-05
 Reference value :  4.10587e-05
 Reference value :  4.10905e-05
 Reference value :  4.11634e-05
 Reference value :  4.11815e-05
 Reference value :  4.12224e-05
 Reference value :  4.12501e-05
 Reference value :  4.12502e-05
 Reference value :  4.12503e-05
 Reference value :  4.12510e-05
 Reference value :  4.12520e-05
 Reference value :  4.12540e-05
 Reference value :  4.12553e-05
 Reference value :  4.12568e-05
 Reference value :  4.12700e-05
 Reference value :  4.13682e-05
 Reference value :  4.15000e-05
 Reference value :  4.15001e-05
 Reference value :  4.15002e-05
 Reference value :  4.15013e-05
 Reference value :  4.15022e-05
 Reference value :  4.15034e-05
 Reference value :  4.15046e-05
 Reference value :  4.15063e-05
 Reference value :  4.15083e-05
 Reference value :  4.15113e-05
 Reference value :  4.15137e-05
 Reference value :  4.15503e-05
 Reference value :  4.17501e-05
 Reference value :  4.17502e-05
 Reference value :  4.17502e-05
 Reference value :  4.17504e-05
 Reference value :  4.17515e-05
 Reference value :  4.17526e-05
 Reference value :  4.17540e-05
 Reference value :  4.17547e-05
 Reference value :  4.17561e-05
 Reference value :  4.17579e-05
 Reference value :  4.17653e-05
 Reference value :  4.18301e-05
 Reference value :  4.20000e-05
 Reference value :  4.20001e-05
 Reference value :  4.20001e-05
 Reference value :  4.20003e-05
 Reference value :  4.20009e-05
 Reference value :  4.20013e-05
 Reference value :  4.20022e-05
 Reference value :  4.20040e-05
 Reference value :  4.20046e-05
 Reference value :  4.20058e-05
 Reference value :  4.20080e-05
 Reference value :  4.20111e-05
 Reference value :  4.20179e-05
 Reference value :  4.20506e-05
 Reference value :  4.22501e-05
 Reference value :  4.22502e-05
 Reference value :  4.22502e-05
 Reference value :  4.22504e-05
 Reference value :  4.22511e-05
 Reference value :  4.22520e-05
 Reference value :  4.22533e-05
 Reference value :  4.22561e-05
 Reference value :  4.22603e-05
 Reference value :  4.22721e-05
 Reference value :  4.23156e-05
 Reference value :  4.25000e-05
 Reference value :  4.25000e-05
 Reference value :  4.25000e-05
 Reference value :  4.25000e-05
 Reference value :  4.25001e-05
 Reference value :  4.25001e-05
 Reference value :  4.25002e-05
 Reference value :  4.25008e-05
 Reference value :  4.25019e-05
 Reference value :  4.25030e-05
 Reference value :  4.25037e-05
 Reference value :  4.25057e-05
 Reference value :  4.25071e-05
 Reference value :  4.25151e-05
 Reference value :  4.25288e-05
 Reference value :  4.25337e-05
 Reference value :  4.25375e-05
 Reference value :  4.25407e-05
 Reference value :  4.25454e-05
 Reference value :  4.25497e-05
 Reference value :  4.25615e-05
 Reference value :  4.25991e-05
 Reference value :  4.27501e-05
 Reference value :  4.27502e-05
 Reference value :  4.27504e-05
 Reference value :  4.27515e-05
 Reference value :  4.27526e-05
 Reference value :  4.27541e-05
 Reference value :  4.27554e-05
 Reference value :  4.27569e-05
 Reference value :  4.27617e-05
 Reference value :  4.27981e-05
 Reference value :  4.29854e-05
 Reference value :  4.30001e-05
 Reference value :  4.30001e-05
 Reference value :  4.30005e-05
 Reference value :  4.30013e-05
 Reference value :  4.30022e-05
 Reference value :  4.30034e-05
 Reference value :  4.30046e-05
 Reference value :  4.30063e-05
 Reference value :  4.30088e-05
 Reference value :  4.30117e-05
 Reference value :  4.30150e-05
 Reference value :  4.30165e-05
 Reference value :  4.30270e-05
 Reference value :  4.32501e-05
 Reference value :  4.32502e-05
 Reference value :  4.32507e-05
 Reference value :  4.32525e-05
 Reference value :  4.32546e-05
 Reference value :  4.32579e-05
 Reference value :  4.32654e-05
 Reference value :  4.32996e-05
 Reference value :  4.34962e-05
 Reference value :  4.35001e-05
 Reference value :  4.35001e-05
 Reference value :  4.35002e-05
 Reference value :  4.35007e-05
 Reference value :  4.35016e-05
 Reference value :  4.35020e-05
 Reference value :  4.35031e-05
 Reference value :  4.35037e-05
 Reference value :  4.35050e-05
 Reference value :  4.35062e-05
 Reference value :  4.35076e-05
 Reference value :  4.35100e-05
 Reference value :  4.35121e-05
 Reference value :  4.35136e-05
 Reference value :  4.35165e-05
 Reference value :  4.35180e-05
 Reference value :  4.35192e-05
 Reference value :  4.35239e-05
 Reference value :  4.35803e-05
 Reference value :  4.37501e-05
 Reference value :  4.37503e-05
 Reference value :  4.37515e-05
 Reference value :  4.37533e-05
 Reference value :  4.37546e-05
 Reference value :  4.37568e-05
 Reference value :  4.37595e-05
 Reference value :  4.37705e-05
 Reference value :  4.38195e-05
 Reference value :  4.38520e-05
 Reference value :  4.38729e-05
 Reference value :  4.39067e-05
 Reference value :  4.40000e-05
 Reference value :  4.40001e-05
 Reference value :  4.40001e-05
 Reference value :  4.40003e-05
 Reference value :  4.40013e-05
 Reference value :  4.40022e-05
 Reference value :  4.40033e-05
 Reference value :  4.40049e-05
 Reference value :  4.40075e-05
 Reference value :  4.40095e-05
 Reference value :  4.40128e-05
 Reference value :  4.40419e-05
 Reference value :  4.42501e-05
 Reference value :  4.42502e-05
 Reference value :  4.42504e-05
 Reference value :  4.42515e-05
 Reference value :  4.42533e-05
 Reference value :  4.42546e-05
 Reference value :  4.42560e-05
 Reference value :  4.42578e-05
 Reference value :  4.42599e-05
 Reference value :  4.42654e-05
 Reference value :  4.42837e-05
 Reference value :  4.43577e-05
 Reference value :  4.45000e-05
 Reference value :  4.45001e-05
 Reference value :  4.45002e-05
 Reference value :  4.45009e-05
 Reference value :  4.45018e-05
 Reference value :  4.45028e-05
 Reference value :  4.45046e-05
 Reference value :  4.45058e-05
 Reference value :  4.45080e-05
 Reference value :  4.45115e-05
 Reference value :  4.45138e-05
 Reference value :  4.45161e-05
 Reference value :  4.45184e-05
 Reference value :  4.45209e-05
 Reference value :  4.45234e-05
 Reference value :  4.45262e-05
 Reference value :  4.45372e-05
 Reference value :  4.45561e-05
 Reference value :  4.46335e-05
 Reference value :  4.47501e-05
 Reference value :  4.47502e-05
 Reference value :  4.47503e-05
 Reference value :  4.47507e-05
 Reference value :  4.47520e-05
 Reference value :  4.47541e-05
 Reference value :  4.47554e-05
 Reference value :  4.47569e-05
 Reference value :  4.47618e-05
 Reference value :  4.47814e-05
 Reference value :  4.48849e-05
 Reference value :  4.50000e-05
 Reference value :  4.50001e-05
 Reference value :  4.50002e-05
 Reference value :  4.50009e-05
 Reference value :  4.50018e-05
 Reference value :  4.50028e-05
 Reference value :  4.50046e-05
 Reference value :  4.50063e-05
 Reference value :  4.50083e-05
 Reference value :  4.50102e-05
 Reference value :  4.50124e-05
 Reference value :  4.50309e-05
 Reference value :  4.52501e-05
 Reference value :  4.52502e-05
 Reference value :  4.52503e-05
 Reference value :  4.52511e-05
 Reference value :  4.52520e-05
 Reference value :  4.52533e-05
 Reference value :  4.52547e-05
 Reference value :  4.52570e-05
 Reference value :  4.52620e-05
 Reference value :  4.52998e-05
 Reference value :  4.54779e-05
 Reference value :  4.55000e-05
 Reference value :  4.55001e-05
 Reference value :  4.55001e-05
 Reference value :  4.55002e-05
 Reference value :  4.55005e-05
 Reference value :  4.55013e-05
 Reference value :  4.55022e-05
 Reference value :  4.55034e-05
 Reference value :  4.55046e-05
 Reference value :  4.55058e-05
 Reference value :  4.55071e-05
 Reference value :  4.55090e-05
 Reference value :  4.55126e-05
 Reference value :  4.55140e-05
 Reference value :  4.55154e-05
 Reference value :  4.55180e-05
 Reference value :  4.55191e-05
 Reference value :  4.55216e-05
 Reference value :  4.55339e-05
 Reference value :  4.56267e-05
 Reference value :  4.57418e-05
 Reference value :  4.57501e-05
 Reference value :  4.57502e-05
 Reference value :  4.57503e-05
 Reference value :  4.57507e-05
 Reference value :  4.57515e-05
 Reference value :  4.57526e-05
 Reference value :  4.57541e-05
 Reference value :  4.57547e-05
 Reference value :  4.57560e-05
 Reference value :  4.57569e-05
 Reference value :  4.57596e-05
 Reference value :  4.57710e-05
 Reference value :  4.58305e-05
 Reference value :  4.60000e-05
 Reference value :  4.60003e-05
 Reference value :  4.60014e-05
 Reference value :  4.60021e-05
 Reference value :  4.60032e-05
 Reference value :  4.60044e-05
 Reference value :  4.60061e-05
 Reference value :  4.60082e-05
 Reference value :  4.60101e-05
 Reference value :  4.60123e-05
 Reference value :  4.60209e-05
 Reference value :  4.60743e-05
 Reference value :  4.62501e-05
 Reference value :  4.62502e-05
 Reference value :  4.62503e-05
 Reference value :  4.62507e-05
 Reference value :  4.62515e-05
 Reference value :  4.62520e-05
 Reference value :  4.62532e-05
 Reference value :  4.62546e-05
 Reference value :  4.62569e-05
 Reference value :  4.62649e-05
 Reference value :  4.63319e-05
 Reference value :  4.65000e-05
 Reference value :  4.65001e-05
 Reference value :  4.65002e-05
 Reference value :  4.65009e-05
 Reference value :  4.65013e-05
 Reference value :  4.65022e-05
 Reference value :  4.65034e-05
 Reference value :  4.65046e-05
 Reference value :  4.65058e-05
 Reference value :  4.65071e-05
 Reference value :  4.65126e-05
 Reference value :  4.65140e-05
 Reference value :  4.65167e-05
 Reference value :  4.65191e-05
 Reference value :  4.65234e-05
 Reference value :  4.65575e-05
 Reference value :  4.66056e-05
 Reference value :  4.67140e-05
 Reference value :  4.67502e-05
 Reference value :  4.67503e-05
 Reference value :  4.67507e-05
 Reference value :  4.67515e-05
 Reference value :  4.67525e-05
 Reference value :  4.67540e-05
 Reference value :  4.67547e-05
 Reference value :  4.67560e-05
 Reference value :  4.67578e-05
 Reference value :  4.67651e-05
 Reference value :  4.67812e-05
 Reference value :  4.68305e-05
 Reference value :  4.69977e-05
 Reference value :  4.70000e-05
 Reference value :  4.70001e-05
 Reference value :  4.70002e-05
[...]
 Reference value :  1.66501e-04
 Reference value :  1.66502e-04
 Reference value :  1.66503e-04
 Reference value :  1.66505e-04
 Reference value :  1.66506e-04
 Reference value :  1.66508e-04
 Reference value :  1.66511e-04
 Reference value :  1.66514e-04
 Reference value :  1.66516e-04
 Reference value :  1.66518e-04
 Reference value :  1.66521e-04
 Reference value :  1.66528e-04
 Reference value :  1.66534e-04
 Reference value :  1.66542e-04
 Reference value :  1.66551e-04
 Reference value :  1.66618e-04
 Reference value :  1.66712e-04
 Reference value :  1.66750e-04
 Reference value :  1.66750e-04
 Reference value :  1.66751e-04
 Reference value :  1.66752e-04
 Reference value :  1.66754e-04
 Reference value :  1.66755e-04
 Reference value :  1.66758e-04
 Reference value :  1.66765e-04
 Reference value :  1.66799e-04
 Reference value :  1.66850e-04
 Reference value :  1.66916e-04
 Reference value :  1.67000e-04
 Reference value :  1.67000e-04
 Reference value :  1.67000e-04
 Reference value :  1.67000e-04
 Reference value :  1.67001e-04
 Reference value :  1.67002e-04
 Reference value :  1.67003e-04
 Reference value :  1.67004e-04
 Reference value :  1.67006e-04
 Reference value :  1.67008e-04
 Reference value :  1.67009e-04
 Reference value :  1.67012e-04
 Reference value :  1.67014e-04
 Reference value :  1.67028e-04
 Reference value :  1.67211e-04
 Reference value :  1.67250e-04
 Reference value :  1.67250e-04
 Reference value :  1.67250e-04
 Reference value :  1.67251e-04
 Reference value :  1.67252e-04
 Reference value :  1.67254e-04
 Reference value :  1.67255e-04
 Reference value :  1.67258e-04
 Reference value :  1.67261e-04
 Reference value :  1.67284e-04
 Reference value :  1.67500e-04
 Reference value :  1.67500e-04
 Reference value :  1.67500e-04
 Reference value :  1.67501e-04
 Reference value :  1.67503e-04
 Reference value :  1.67505e-04
 Reference value :  1.67506e-04
 Reference value :  1.67508e-04
 Reference value :  1.67511e-04
 Reference value :  1.67514e-04
 Reference value :  1.67516e-04
 Reference value :  1.67520e-04
 Reference value :  1.67525e-04
 Reference value :  1.67530e-04
 Reference value :  1.67536e-04
 Reference value :  1.67591e-04
 Reference value :  1.67750e-04
 Reference value :  1.67750e-04
 Reference value :  1.67752e-04
 Reference value :  1.67754e-04
 Reference value :  1.67755e-04
 Reference value :  1.67757e-04
 Reference value :  1.67762e-04
 Reference value :  1.67830e-04
 Reference value :  1.68000e-04
 Reference value :  1.68000e-04
 Reference value :  1.68000e-04
 Reference value :  1.68000e-04
 Reference value :  1.68001e-04
 Reference value :  1.68002e-04
 Reference value :  1.68003e-04
 Reference value :  1.68005e-04
 Reference value :  1.68007e-04
 Reference value :  1.68009e-04
 Reference value :  1.68011e-04
 Reference value :  1.68016e-04
 Reference value :  1.68167e-04
 Reference value :  1.68250e-04
 Reference value :  1.68250e-04
 Reference value :  1.68252e-04
 Reference value :  1.68253e-04
 Reference value :  1.68255e-04
 Reference value :  1.68257e-04
 Reference value :  1.68262e-04
 Reference value :  1.68300e-04
 Reference value :  1.68500e-04
 Reference value :  1.68500e-04
 Reference value :  1.68500e-04
 Reference value :  1.68502e-04
 Reference value :  1.68503e-04
 Reference value :  1.68505e-04
 Reference value :  1.68506e-04
 Reference value :  1.68509e-04
 Reference value :  1.68514e-04
 Reference value :  1.68517e-04
 Reference value :  1.68519e-04
 Reference value :  1.68523e-04
 Reference value :  1.68537e-04
 Reference value :  1.68553e-04
 Reference value :  1.68566e-04
 Reference value :  1.68628e-04
 Reference value :  1.68734e-04
 Reference value :  1.68750e-04
 Reference value :  1.68750e-04
 Reference value :  1.68750e-04
 Reference value :  1.68752e-04
 Reference value :  1.68753e-04
 Reference value :  1.68754e-04
 Reference value :  1.68755e-04
 Reference value :  1.68758e-04
 Reference value :  1.68766e-04
 Reference value :  1.68802e-04
 Reference value :  1.68982e-04
 Reference value :  1.69000e-04
 Reference value :  1.69000e-04
 Reference value :  1.69000e-04
 Reference value :  1.69001e-04
 Reference value :  1.69002e-04
 Reference value :  1.69002e-04
 Reference value :  1.69003e-04
 Reference value :  1.69005e-04
 Reference value :  1.69007e-04
 Reference value :  1.69008e-04
 Reference value :  1.69009e-04
 Reference value :  1.69012e-04
 Reference value :  1.69014e-04
 Reference value :  1.69028e-04
 Reference value :  1.69115e-04
 Reference value :  1.69250e-04
 Reference value :  1.69250e-04
 Reference value :  1.69250e-04
 Reference value :  1.69251e-04
 Reference value :  1.69252e-04
 Reference value :  1.69253e-04
 Reference value :  1.69254e-04
 Reference value :  1.69255e-04
 Reference value :  1.69257e-04
 Reference value :  1.69259e-04
 Reference value :  1.69263e-04
 Reference value :  1.69284e-04
 Reference value :  1.69418e-04
 Reference value :  1.69500e-04
 Reference value :  1.69500e-04
 Reference value :  1.69500e-04
 Reference value :  1.69501e-04
 Reference value :  1.69502e-04
 Reference value :  1.69504e-04
 Reference value :  1.69505e-04
 Reference value :  1.69506e-04
 Reference value :  1.69506e-04
 Reference value :  1.69508e-04
 Reference value :  1.69510e-04
 Reference value :  1.69512e-04
 Reference value :  1.69516e-04
 Reference value :  1.69518e-04
 Reference value :  1.69523e-04
 Reference value :  1.69552e-04
 Reference value :  1.69714e-04
 Reference value :  1.69750e-04
 Reference value :  1.69750e-04
 Reference value :  1.69750e-04
 Reference value :  1.69751e-04
 Reference value :  1.69752e-04
 Reference value :  1.69753e-04
 Reference value :  1.69755e-04
 Reference value :  1.69759e-04
 Reference value :  1.69766e-04
 Reference value :  1.69794e-04
 Reference value :  1.69937e-04
 Reference value :  1.70000e-04
 Reference value :  1.70000e-04
 Reference value :  1.70000e-04
 Reference value :  1.70000e-04
 Reference value :  1.70000e-04
 Reference value :  1.70000e-04
 Reference value :  1.70000e-04
 Reference value :  1.70001e-04
 Reference value :  1.70002e-04
 Reference value :  1.70004e-04
 Reference value :  1.70005e-04
 Reference value :  1.70006e-04
 Reference value :  1.70008e-04
 Reference value :  1.70015e-04
 Reference value :  1.70029e-04
 Reference value :  1.70034e-04
 Reference value :  1.70037e-04
 Reference value :  1.70043e-04
 Reference value :  1.70051e-04
 Reference value :  1.70077e-04
 Reference value :  1.70211e-04
 Reference value :  1.70250e-04
 Reference value :  1.70250e-04
 Reference value :  1.70250e-04
 Reference value :  1.70251e-04
 Reference value :  1.70252e-04
 Reference value :  1.70254e-04
 Reference value :  1.70255e-04
 Reference value :  1.70256e-04
 Reference value :  1.70259e-04
 Reference value :  1.70281e-04
 Reference value :  1.70385e-04
 Reference value :  1.70500e-04
 Reference value :  1.70500e-04
 Reference value :  1.70500e-04
 Reference value :  1.70501e-04
 Reference value :  1.70502e-04
 Reference value :  1.70504e-04
 Reference value :  1.70505e-04
 Reference value :  1.70509e-04
 Reference value :  1.70513e-04
 Reference value :  1.70516e-04
 Reference value :  1.70520e-04
 Reference value :  1.70533e-04
 Reference value :  1.70598e-04
 Reference value :  1.70750e-04
 Reference value :  1.70750e-04
 Reference value :  1.70750e-04
 Reference value :  1.70751e-04
 Reference value :  1.70752e-04
 Reference value :  1.70752e-04
 Reference value :  1.70753e-04
 Reference value :  1.70755e-04
 Reference value :  1.70756e-04
 Reference value :  1.70758e-04
 Reference value :  1.70762e-04
 Reference value :  1.70782e-04
 Reference value :  1.70887e-04
 Reference value :  1.71000e-04
 Reference value :  1.71000e-04
 Reference value :  1.71000e-04
 Reference value :  1.71000e-04
 Reference value :  1.71001e-04
 Reference value :  1.71001e-04
 Reference value :  1.71002e-04
 Reference value :  1.71003e-04
 Reference value :  1.71005e-04
 Reference value :  1.71006e-04
 Reference value :  1.71007e-04
 Reference value :  1.71011e-04
 Reference value :  1.71014e-04
 Reference value :  1.71015e-04
 Reference value :  1.71018e-04
 Reference value :  1.71020e-04
 Reference value :  1.71029e-04
 Reference value :  1.71082e-04
 Reference value :  1.71250e-04
 Reference value :  1.71250e-04
 Reference value :  1.71251e-04
 Reference value :  1.71252e-04
 Reference value :  1.71254e-04
 Reference value :  1.71255e-04
 Reference value :  1.71257e-04
 Reference value :  1.71262e-04
 Reference value :  1.71281e-04
 Reference value :  1.71386e-04
 Reference value :  1.71500e-04
 Reference value :  1.71500e-04
 Reference value :  1.71500e-04
 Reference value :  1.71500e-04
 Reference value :  1.71501e-04
 Reference value :  1.71501e-04
 Reference value :  1.71502e-04
 Reference value :  1.71503e-04
 Reference value :  1.71505e-04
 Reference value :  1.71506e-04
 Reference value :  1.71507e-04
 Reference value :  1.71508e-04
 Reference value :  1.71509e-04
 Reference value :  1.71510e-04
 Reference value :  1.71512e-04
 Reference value :  1.71521e-04
 Reference value :  1.71550e-04
 Reference value :  1.71667e-04
 Reference value :  1.71750e-04
 Reference value :  1.71750e-04
 Reference value :  1.71750e-04
 Reference value :  1.71750e-04
 Reference value :  1.71751e-04
 Reference value :  1.71752e-04
 Reference value :  1.71753e-04
 Reference value :  1.71755e-04
 Reference value :  1.71756e-04
 Reference value :  1.71758e-04
 Reference value :  1.71762e-04
 Reference value :  1.71782e-04
 Reference value :  1.71885e-04
 Reference value :  1.72000e-04
 Reference value :  1.72000e-04
 Reference value :  1.72000e-04
 Reference value :  1.72000e-04
 Reference value :  1.72001e-04
 Reference value :  1.72003e-04
 Reference value :  1.72005e-04
 Reference value :  1.72006e-04
 Reference value :  1.72007e-04
 Reference value :  1.72011e-04
 Reference value :  1.72014e-04
 Reference value :  1.72017e-04
 Reference value :  1.72019e-04
 Reference value :  1.72022e-04
 Reference value :  1.72028e-04
 Reference value :  1.72034e-04
 Reference value :  1.72043e-04
 Reference value :  1.72053e-04
 Reference value :  1.72063e-04
 Reference value :  1.72096e-04
 Reference value :  1.72250e-04
 Reference value :  1.72250e-04
 Reference value :  1.72250e-04
 Reference value :  1.72252e-04
 Reference value :  1.72253e-04
 Reference value :  1.72254e-04
 Reference value :  1.72255e-04
 Reference value :  1.72257e-04
 Reference value :  1.72262e-04
 Reference value :  1.72283e-04
 Reference value :  1.72388e-04
 Reference value :  1.72500e-04
 Reference value :  1.72500e-04
 Reference value :  1.72500e-04
 Reference value :  1.72500e-04
 Reference value :  1.72501e-04
 Reference value :  1.72501e-04
 Reference value :  1.72502e-04
 Reference value :  1.72503e-04
 Reference value :  1.72505e-04
 Reference value :  1.72507e-04
 Reference value :  1.72508e-04
 Reference value :  1.72509e-04
 Reference value :  1.72512e-04
 Reference value :  1.72514e-04
 Reference value :  1.72542e-04
 Reference value :  1.72712e-04
 Reference value :  1.72750e-04
 Reference value :  1.72750e-04
 Reference value :  1.72751e-04
 Reference value :  1.72752e-04
 Reference value :  1.72753e-04
 Reference value :  1.72755e-04
 Reference value :  1.72757e-04
 Reference value :  1.72759e-04
 Reference value :  1.72761e-04
 Reference value :  1.72769e-04
 Reference value :  1.72822e-04
 Reference value :  1.73000e-04
 Reference value :  1.73000e-04
 Reference value :  1.73000e-04
 Reference value :  1.73001e-04
 Reference value :  1.73002e-04
 Reference value :  1.73004e-04
 Reference value :  1.73005e-04
 Reference value :  1.73006e-04
 Reference value :  1.73008e-04
 Reference value :  1.73011e-04
 Reference value :  1.73014e-04
 Reference value :  1.73016e-04
 Reference value :  1.73018e-04
 Reference value :  1.73021e-04
 Reference value :  1.73027e-04
 Reference value :  1.73073e-04
 Reference value :  1.73134e-04
 Reference value :  1.73213e-04
 Reference value :  1.73250e-04
 Reference value :  1.73250e-04
 Reference value :  1.73250e-04
 Reference value :  1.73250e-04
 Reference value :  1.73251e-04
 Reference value :  1.73252e-04
 Reference value :  1.73253e-04
 Reference value :  1.73254e-04
 Reference value :  1.73255e-04
 Reference value :  1.73256e-04
 Reference value :  1.73258e-04
 Reference value :  1.73262e-04
 Reference value :  1.73281e-04
 Reference value :  1.73385e-04
 Reference value :  1.73500e-04
 Reference value :  1.73500e-04
 Reference value :  1.73500e-04
 Reference value :  1.73501e-04
 Reference value :  1.73501e-04
 Reference value :  1.73502e-04
 Reference value :  1.73503e-04
 Reference value :  1.73505e-04
 Reference value :  1.73508e-04
 Reference value :  1.73509e-04
 Reference value :  1.73512e-04
 Reference value :  1.73514e-04
 Reference value :  1.73542e-04
 Reference value :  1.73750e-04
 Reference value :  1.73750e-04
 Reference value :  1.73750e-04
 Reference value :  1.73752e-04
 Reference value :  1.73753e-04
 Reference value :  1.73754e-04
 Reference value :  1.73755e-04
 Reference value :  1.73756e-04
 Reference value :  1.73758e-04
 Reference value :  1.73760e-04
 Reference value :  1.73765e-04
 Reference value :  1.73784e-04
 Reference value :  1.73857e-04
 Reference value :  1.74000e-04
 Reference value :  1.74000e-04
 Reference value :  1.74000e-04
 Reference value :  1.74000e-04
 Reference value :  1.74000e-04
 Reference value :  1.74001e-04
 Reference value :  1.74001e-04
 Reference value :  1.74002e-04
 Reference value :  1.74003e-04
 Reference value :  1.74004e-04
 Reference value :  1.74005e-04
 Reference value :  1.74006e-04
 Reference value :  1.74007e-04
 Reference value :  1.74010e-04
 Reference value :  1.74011e-04
 Reference value :  1.74014e-04
 Reference value :  1.74016e-04
 Reference value :  1.74018e-04
 Reference value :  1.74021e-04
 Reference value :  1.74027e-04
 Reference value :  1.74052e-04
 Reference value :  1.74062e-04
 Reference value :  1.74081e-04
 Reference value :  1.74096e-04
 Reference value :  1.74136e-04
 Reference value :  1.74173e-04
 Reference value :  1.74188e-04
 Reference value :  1.74202e-04
 Reference value :  1.74214e-04
 Reference value :  1.74238e-04
 Reference value :  1.74250e-04
 Reference value :  1.74250e-04
 Reference value :  1.74250e-04
 Reference value :  1.74251e-04
 Reference value :  1.74252e-04
 Reference value :  1.74253e-04
 Reference value :  1.74254e-04
 Reference value :  1.74255e-04
 Reference value :  1.74256e-04
 Reference value :  1.74260e-04
 Reference value :  1.74284e-04
 Reference value :  1.74389e-04
 Reference value :  1.74500e-04
 Reference value :  1.74500e-04
 Reference value :  1.74500e-04
 Reference value :  1.74501e-04
 Reference value :  1.74501e-04
 Reference value :  1.74502e-04
 Reference value :  1.74504e-04
 Reference value :  1.74506e-04
 Reference value :  1.74508e-04
 Reference value :  1.74509e-04
 Reference value :  1.74512e-04
 Reference value :  1.74514e-04
 Reference value :  1.74542e-04
 Reference value :  1.74711e-04
 Reference value :  1.74750e-04
 Reference value :  1.74750e-04
 Reference value :  1.74750e-04
 Reference value :  1.74751e-04
 Reference value :  1.74752e-04
 Reference value :  1.74753e-04
 Reference value :  1.74755e-04
 Reference value :  1.74756e-04
 Reference value :  1.74758e-04
 Reference value :  1.74761e-04
 Reference value :  1.74775e-04
 Reference value :  1.74916e-04
 Reference value :  1.75000e-04
 Reference value :  1.75000e-04
 Reference value :  1.75000e-04
 Reference value :  1.75001e-04
 Reference value :  1.75002e-04
 Reference value :  1.75003e-04
 Reference value :  1.75005e-04
 Reference value :  1.75006e-04
 Reference value :  1.75008e-04
 Reference value :  1.75011e-04
 Reference value :  1.75014e-04
 Reference value :  1.75017e-04
 Reference value :  1.75021e-04
 Reference value :  1.75031e-04
 Reference value :  1.75041e-04
 Reference value :  1.75052e-04
 Reference value :  1.75093e-04
 Reference value :  1.75201e-04
 Reference value :  1.75250e-04
 Reference value :  1.75250e-04
 Reference value :  1.75250e-04
 Reference value :  1.75251e-04
 Reference value :  1.75252e-04
 Reference value :  1.75253e-04
 Reference value :  1.75254e-04
 Reference value :  1.75255e-04
 Reference value :  1.75260e-04
 Reference value :  1.75271e-04
 Reference value :  1.75293e-04
 Reference value :  1.75310e-04
 Reference value :  1.75359e-04
 Reference value :  1.75464e-04
 Reference value :  1.75500e-04
 Reference value :  1.75500e-04
 Reference value :  1.75500e-04
 Reference value :  1.75501e-04
 Reference value :  1.75502e-04
 Reference value :  1.75503e-04
 Reference value :  1.75505e-04
 Reference value :  1.75508e-04
 Reference value :  1.75509e-04
 Reference value :  1.75512e-04
 Reference value :  1.75513e-04
 Reference value :  1.75528e-04
 Reference value :  1.75566e-04
 Reference value :  1.75750e-04
 Reference value :  1.75750e-04
 Reference value :  1.75750e-04
 Reference value :  1.75750e-04
 Reference value :  1.75751e-04
 Reference value :  1.75752e-04
 Reference value :  1.75754e-04
 Reference value :  1.75755e-04
 Reference value :  1.75757e-04
 Reference value :  1.75760e-04
 Reference value :  1.75775e-04
 Reference value :  1.75857e-04
 Reference value :  1.76000e-04
 Reference value :  1.76000e-04
 Reference value :  1.76001e-04
 Reference value :  1.76003e-04
 Reference value :  1.76005e-04
 Reference value :  1.76006e-04
 Reference value :  1.76010e-04
 Reference value :  1.76014e-04
 Reference value :  1.76016e-04
 Reference value :  1.76020e-04
 Reference value :  1.76023e-04
 Reference value :  1.76026e-04
 Reference value :  1.76030e-04
 Reference value :  1.76054e-04
 Reference value :  1.76250e-04
 Reference value :  1.76250e-04
 Reference value :  1.76251e-04
 Reference value :  1.76253e-04
 Reference value :  1.76255e-04
 Reference value :  1.76257e-04
 Reference value :  1.76281e-04
 Reference value :  1.76482e-04
 Reference value :  1.76500e-04
 Reference value :  1.76500e-04
 Reference value :  1.76501e-04
 Reference value :  1.76502e-04
 Reference value :  1.76505e-04
 Reference value :  1.76507e-04
 Reference value :  1.76509e-04
 Reference value :  1.76512e-04
 Reference value :  1.76550e-04
 Reference value :  1.76750e-04
 Reference value :  1.76750e-04
 Reference value :  1.76751e-04
 Reference value :  1.76752e-04
 Reference value :  1.76754e-04
 Reference value :  1.76755e-04
 Reference value :  1.76760e-04
 Reference value :  1.76782e-04
 Reference value :  1.77000e-04
 Reference value :  1.77000e-04
 Reference value :  1.77000e-04
 Reference value :  1.77001e-04
 Reference value :  1.77002e-04
 Reference value :  1.77004e-04
 Reference value :  1.77006e-04
 Reference value :  1.77008e-04
 Reference value :  1.77014e-04
 Reference value :  1.77019e-04
 Reference value :  1.77029e-04
 Reference value :  1.77056e-04
 Reference value :  1.77096e-04
 Reference value :  1.77250e-04
 Reference value :  1.77250e-04
 Reference value :  1.77251e-04
 Reference value :  1.77253e-04
 Reference value :  1.77256e-04
 Reference value :  1.77265e-04
 Reference value :  1.77312e-04
 Reference value :  1.77500e-04
 Reference value :  1.77500e-04
 Reference value :  1.77501e-04
 Reference value :  1.77504e-04
 Reference value :  1.77507e-04
 Reference value :  1.77511e-04
 Reference value :  1.77550e-04
 Reference value :  1.77750e-04
 Reference value :  1.77751e-04
 Reference value :  1.77753e-04
 Reference value :  1.77755e-04
 Reference value :  1.77765e-04
 Reference value :  1.78000e-04
 Reference value :  1.78000e-04
 Reference value :  1.78001e-04
 Reference value :  1.78004e-04
 Reference value :  1.78006e-04
 Reference value :  1.78009e-04
 Reference value :  1.78023e-04
 Reference value :  1.78250e-04
 Reference value :  1.78250e-04
 Reference value :  1.78252e-04
 Reference value :  1.78256e-04
 Reference value :  1.78280e-04
No. of Data Rows : 26491
ngspice-44 done
