
Note: Compatibility modes selected: hs a


Circuit: ** sch_path: /home/audrey/cace/sar-adc-using-sky130-pdk/runs/run_2025-08-29_19-41-24/parameters/power/run_4/power_consumption.sch

option SCALE: Scale is set to 1e-06 for instance and model parameters
option SCALE: Scale is set to 1e-06 for instance and model parameters
option SCALE: Scale is set to 1e-06 for instance and model parameters
option SCALE: Scale is set to 1e-06 for instance and model parameters
Doing analysis at TEMP = 27.000000 and TNOM = 27.000000

Using KLU as Direct Linear Solver
Operating point simulation skipped by 'uic',
  now using transient initial conditions.
 Reference value :  5.00000e-12
 Reference value :  5.12832e-12
 Reference value :  5.38496e-12
 Reference value :  5.89825e-12
 Reference value :  6.92482e-12
 Reference value :  8.76612e-12
 Reference value :  1.17343e-11
 Reference value :  1.71123e-11
 Reference value :  2.78683e-11
 Reference value :  4.15904e-11
 Reference value :  6.56195e-11
 Reference value :  9.50370e-11
 Reference value :  1.46942e-10
 Reference value :  2.09024e-10
 Reference value :  3.31664e-10
 Reference value :  4.91623e-10
 Reference value :  5.00000e-10
 Reference value :  5.02624e-10
 Reference value :  5.07871e-10
 Reference value :  5.18367e-10
 Reference value :  5.39357e-10
 Reference value :  5.81338e-10
 Reference value :  6.65300e-10
 Reference value :  8.33224e-10
 Reference value :  1.16907e-09
 Reference value :  1.84077e-09
 Reference value :  2.73000e-09
 Reference value :  3.95914e-09
 Reference value :  5.79325e-09
 Reference value :  8.28213e-09
 Reference value :  1.18428e-08
 Reference value :  1.89640e-08
 Reference value :  2.86261e-08
 Reference value :  4.31045e-08
 Reference value :  6.04594e-08
 Reference value :  7.93648e-08
 Reference value :  1.01196e-07
 Reference value :  1.26469e-07
 Reference value :  1.54165e-07
 Reference value :  1.90397e-07
 Reference value :  1.97984e-07
 Reference value :  2.13158e-07
 Reference value :  2.29373e-07
 Reference value :  2.43637e-07
 Reference value :  2.55098e-07
 Reference value :  2.64927e-07
 Reference value :  2.75539e-07
 Reference value :  2.85762e-07
 Reference value :  2.97444e-07
 Reference value :  3.06004e-07
 Reference value :  3.13744e-07
 Reference value :  3.21950e-07
 Reference value :  3.31705e-07
 Reference value :  3.41040e-07
 Reference value :  3.49478e-07
 Reference value :  3.59403e-07
 Reference value :  3.69428e-07
 Reference value :  3.82046e-07
 Reference value :  3.94448e-07
 Reference value :  4.06022e-07
 Reference value :  4.22142e-07
 Reference value :  4.38826e-07
 Reference value :  4.57331e-07
 Reference value :  4.94340e-07
 Reference value :  5.00000e-07
 Reference value :  5.03414e-07
 Reference value :  5.10243e-07
 Reference value :  5.23901e-07
 Reference value :  5.51217e-07
 Reference value :  6.05848e-07
 Reference value :  7.15111e-07
 Reference value :  7.18526e-07
 Reference value :  7.25355e-07
 Reference value :  7.39012e-07
 Reference value :  7.66328e-07
 Reference value :  8.20960e-07
 Reference value :  8.71578e-07
 Reference value :  9.08264e-07
 Reference value :  9.45522e-07
 Reference value :  9.90331e-07
 Reference value :  1.00050e-06
 Reference value :  1.00055e-06
 Reference value :  1.00065e-06
 Reference value :  1.00085e-06
 Reference value :  1.00100e-06
 Reference value :  1.00104e-06
 Reference value :  1.00111e-06
 Reference value :  1.00125e-06
 Reference value :  1.00154e-06
 Reference value :  1.00189e-06
 Reference value :  1.00227e-06
 Reference value :  1.00289e-06
 Reference value :  1.00392e-06
 Reference value :  1.00598e-06
 Reference value :  1.01010e-06
 Reference value :  1.01574e-06
 Reference value :  1.02206e-06
 Reference value :  1.03038e-06
 Reference value :  1.04118e-06
 Reference value :  1.05734e-06
 Reference value :  1.08128e-06
 Reference value :  1.11780e-06
 Reference value :  1.15126e-06
 Reference value :  1.18147e-06
 Reference value :  1.21428e-06
 Reference value :  1.24457e-06
 Reference value :  1.26552e-06
 Reference value :  1.28545e-06
 Reference value :  1.29929e-06
 Reference value :  1.31379e-06
 Reference value :  1.32808e-06
 Reference value :  1.34409e-06
 Reference value :  1.36467e-06
 Reference value :  1.39127e-06
 Reference value :  1.43003e-06
 Reference value :  1.47901e-06
 Reference value :  1.52572e-06
 Reference value :  1.53183e-06
 Reference value :  1.54406e-06
 Reference value :  1.56851e-06
 Reference value :  1.60463e-06
 Reference value :  1.63894e-06
 Reference value :  1.66991e-06
 Reference value :  1.70985e-06
 Reference value :  1.74271e-06
 Reference value :  1.77744e-06
 Reference value :  1.81932e-06
 Reference value :  1.86368e-06
 Reference value :  1.92334e-06
 Reference value :  1.99613e-06
 Reference value :  2.00000e-06
 Reference value :  2.00005e-06
 Reference value :  2.00015e-06
 Reference value :  2.00035e-06
 Reference value :  2.00050e-06
 Reference value :  2.00051e-06
 Reference value :  2.00053e-06
 Reference value :  2.00057e-06
 Reference value :  2.00064e-06
 Reference value :  2.00079e-06
 Reference value :  2.00109e-06
 Reference value :  2.00169e-06
 Reference value :  2.00259e-06
 Reference value :  2.00391e-06
 Reference value :  2.00575e-06
 Reference value :  2.00809e-06
 Reference value :  2.01117e-06
 Reference value :  2.01470e-06
 Reference value :  2.02147e-06
 Reference value :  2.03451e-06
 Reference value :  2.06054e-06
 Reference value :  2.10851e-06
 Reference value :  2.16852e-06
 Reference value :  2.28356e-06
 Reference value :  2.46248e-06
 Reference value :  2.46780e-06
 Reference value :  2.47844e-06
 Reference value :  2.49973e-06
 Reference value :  2.54231e-06
 Reference value :  2.62747e-06
 Reference value :  2.72972e-06
 Reference value :  2.81160e-06
 Reference value :  2.89638e-06
 Reference value :  3.00050e-06
 Reference value :  3.00055e-06
 Reference value :  3.00065e-06
 Reference value :  3.00085e-06
 Reference value :  3.00100e-06
 Reference value :  3.00104e-06
 Reference value :  3.00111e-06
 Reference value :  3.00125e-06
 Reference value :  3.00153e-06
 Reference value :  3.00190e-06
 Reference value :  3.00228e-06
 Reference value :  3.00290e-06
 Reference value :  3.00383e-06
 Reference value :  3.00569e-06
 Reference value :  3.00940e-06
 Reference value :  3.01684e-06
 Reference value :  3.03172e-06
 Reference value :  3.05173e-06
 Reference value :  3.08365e-06
 Reference value :  3.11882e-06
 Reference value :  3.17173e-06
 Reference value :  3.22573e-06
 Reference value :  3.26351e-06
 Reference value :  3.29995e-06
 Reference value :  3.34594e-06
 Reference value :  3.39287e-06
 Reference value :  3.45141e-06
 Reference value :  3.51949e-06
 Reference value :  3.60208e-06
 Reference value :  3.70454e-06
 Reference value :  3.83054e-06
 Reference value :  3.98897e-06
 Reference value :  4.00000e-06
 Reference value :  4.00005e-06
 Reference value :  4.00015e-06
 Reference value :  4.00035e-06
 Reference value :  4.00050e-06
 Reference value :  4.00051e-06
 Reference value :  4.00053e-06
 Reference value :  4.00057e-06
 Reference value :  4.00064e-06
 Reference value :  4.00079e-06
 Reference value :  4.00109e-06
 Reference value :  4.00168e-06
 Reference value :  4.00288e-06
 Reference value :  4.00447e-06
 Reference value :  4.00670e-06
 Reference value :  4.01019e-06
 Reference value :  4.01421e-06
 Reference value :  4.01955e-06
 Reference value :  4.02580e-06
 Reference value :  4.03829e-06
 Reference value :  4.06028e-06
 Reference value :  4.10290e-06
 Reference value :  4.14699e-06
 Reference value :  4.19175e-06
 Reference value :  4.22336e-06
 Reference value :  4.25502e-06
 Reference value :  4.28788e-06
 Reference value :  4.32558e-06
 Reference value :  4.36444e-06
 Reference value :  4.41350e-06
 Reference value :  4.47186e-06
 Reference value :  4.54696e-06
 Reference value :  4.64716e-06
 Reference value :  4.78043e-06
 Reference value :  4.96798e-06
 Reference value :  5.00050e-06
 Reference value :  5.00055e-06
 Reference value :  5.00065e-06
 Reference value :  5.00085e-06
 Reference value :  5.00100e-06
 Reference value :  5.00103e-06
 Reference value :  5.00109e-06
 Reference value :  5.00120e-06
 Reference value :  5.00143e-06
 Reference value :  5.00177e-06
 Reference value :  5.00215e-06
 Reference value :  5.00273e-06
 Reference value :  5.00355e-06
 Reference value :  5.00520e-06
 Reference value :  5.00851e-06
 Reference value :  5.01512e-06
 Reference value :  5.02833e-06
 Reference value :  5.05421e-06
 Reference value :  5.08700e-06
 Reference value :  5.13590e-06
 Reference value :  5.18612e-06
 Reference value :  5.26439e-06
 Reference value :  5.40176e-06
 Reference value :  5.53831e-06
 Reference value :  5.63453e-06
 Reference value :  5.72417e-06
 Reference value :  5.82297e-06
 Reference value :  5.92446e-06
 Reference value :  6.00000e-06
 Reference value :  6.00005e-06
 Reference value :  6.00015e-06
 Reference value :  6.00035e-06
 Reference value :  6.00050e-06
 Reference value :  6.00051e-06
 Reference value :  6.00052e-06
 Reference value :  6.00056e-06
 Reference value :  6.00062e-06
 Reference value :  6.00076e-06
 Reference value :  6.00102e-06
 Reference value :  6.00156e-06
 Reference value :  6.00262e-06
 Reference value :  6.00448e-06
 Reference value :  6.00665e-06
 Reference value :  6.01023e-06
 Reference value :  6.01448e-06
 Reference value :  6.02170e-06
 Reference value :  6.02838e-06
 Reference value :  6.03981e-06
 Reference value :  6.06137e-06
 Reference value :  6.09456e-06
 Reference value :  6.16093e-06
 Reference value :  6.24521e-06
 Reference value :  6.32046e-06
 Reference value :  6.40601e-06
 Reference value :  6.48381e-06
 Reference value :  6.58196e-06
 Reference value :  6.77825e-06
 Reference value :  7.00050e-06
 Reference value :  7.00055e-06
 Reference value :  7.00065e-06
 Reference value :  7.00085e-06
 Reference value :  7.00100e-06
 Reference value :  7.00104e-06
 Reference value :  7.00111e-06
 Reference value :  7.00126e-06
 Reference value :  7.00156e-06
 Reference value :  7.00192e-06
 Reference value :  7.00231e-06
 Reference value :  7.00297e-06
 Reference value :  7.00424e-06
 Reference value :  7.00678e-06
 Reference value :  7.01186e-06
 Reference value :  7.02203e-06
 Reference value :  7.04093e-06
 Reference value :  7.06237e-06
 Reference value :  7.09600e-06
 Reference value :  7.14024e-06
 Reference value :  7.21230e-06
 Reference value :  7.29880e-06
 Reference value :  7.43996e-06
 Reference value :  7.57984e-06
 Reference value :  7.74372e-06
 Reference value :  7.85339e-06
 Reference value :  7.95504e-06
 Reference value :  8.00000e-06
 Reference value :  8.00005e-06
 Reference value :  8.00015e-06
 Reference value :  8.00035e-06
 Reference value :  8.00050e-06
 Reference value :  8.00051e-06
 Reference value :  8.00054e-06
 Reference value :  8.00059e-06
 Reference value :  8.00069e-06
 Reference value :  8.00088e-06
 Reference value :  8.00128e-06
 Reference value :  8.00207e-06
 Reference value :  8.00365e-06
 Reference value :  8.00556e-06
 Reference value :  8.00849e-06
 Reference value :  8.01259e-06
 Reference value :  8.01857e-06
 Reference value :  8.02566e-06
 Reference value :  8.03396e-06
 Reference value :  8.05055e-06
 Reference value :  8.08099e-06
 Reference value :  8.13863e-06
 Reference value :  8.22356e-06
 Reference value :  8.35992e-06
 Reference value :  8.58507e-06
 Reference value :  9.00050e-06
 Reference value :  9.00055e-06
 Reference value :  9.00065e-06
 Reference value :  9.00085e-06
 Reference value :  9.00100e-06
 Reference value :  9.00103e-06
 Reference value :  9.00109e-06
 Reference value :  9.00120e-06
 Reference value :  9.00143e-06
 Reference value :  9.00178e-06
 Reference value :  9.00215e-06
 Reference value :  9.00273e-06
 Reference value :  9.00357e-06
 Reference value :  9.00523e-06
 Reference value :  9.00856e-06
 Reference value :  9.01521e-06
 Reference value :  9.02852e-06
 Reference value :  9.05250e-06
 Reference value :  9.08035e-06
 Reference value :  9.12348e-06
 Reference value :  9.18148e-06
 Reference value :  9.27608e-06
 Reference value :  9.36887e-06
 Reference value :  9.43469e-06
 Reference value :  9.49612e-06
 Reference value :  9.56230e-06
 Reference value :  9.60869e-06
 Reference value :  9.65276e-06
 Reference value :  9.69996e-06
 Reference value :  9.74398e-06
 Reference value :  9.78686e-06
 Reference value :  9.83372e-06
 Reference value :  9.88336e-06
 Reference value :  9.94148e-06
 Reference value :  1.00000e-05
 Reference value :  1.00000e-05
 Reference value :  1.00001e-05
 Reference value :  1.00003e-05
 Reference value :  1.00005e-05
 Reference value :  1.00005e-05
 Reference value :  1.00005e-05
 Reference value :  1.00006e-05
 Reference value :  1.00007e-05
 Reference value :  1.00008e-05
 Reference value :  1.00012e-05
 Reference value :  1.00018e-05
 Reference value :  1.00032e-05
 Reference value :  1.00059e-05
 Reference value :  1.00113e-05
 Reference value :  1.00221e-05
 Reference value :  1.00413e-05
 Reference value :  1.00613e-05
 Reference value :  1.00961e-05
 Reference value :  1.01657e-05
 Reference value :  1.02337e-05
 Reference value :  1.03477e-05
 Reference value :  1.04694e-05
 Reference value :  1.07129e-05
 Reference value :  1.10005e-05
 Reference value :  1.10005e-05
 Reference value :  1.10006e-05
 Reference value :  1.10008e-05
 Reference value :  1.10010e-05
 Reference value :  1.10010e-05
 Reference value :  1.10011e-05
 Reference value :  1.10012e-05
 Reference value :  1.10014e-05
 Reference value :  1.10018e-05
 Reference value :  1.10022e-05
 Reference value :  1.10028e-05
 Reference value :  1.10039e-05
 Reference value :  1.10061e-05
 Reference value :  1.10104e-05
 Reference value :  1.10192e-05
 Reference value :  1.10366e-05
 Reference value :  1.10716e-05
 Reference value :  1.11380e-05
 Reference value :  1.12181e-05
 Reference value :  1.13480e-05
 Reference value :  1.15331e-05
 Reference value :  1.17290e-05
 Reference value :  1.18662e-05
 Reference value :  1.19930e-05
 Reference value :  1.20000e-05
 Reference value :  1.20000e-05
 Reference value :  1.20001e-05
 Reference value :  1.20003e-05
 Reference value :  1.20005e-05
 Reference value :  1.20005e-05
 Reference value :  1.20005e-05
 Reference value :  1.20006e-05
 Reference value :  1.20007e-05
 Reference value :  1.20008e-05
 Reference value :  1.20012e-05
 Reference value :  1.20018e-05
 Reference value :  1.20032e-05
 Reference value :  1.20059e-05
 Reference value :  1.20112e-05
 Reference value :  1.20220e-05
 Reference value :  1.20435e-05
 Reference value :  1.20719e-05
 Reference value :  1.21057e-05
 Reference value :  1.21733e-05
 Reference value :  1.22615e-05
 Reference value :  1.23897e-05
 Reference value :  1.25098e-05
 Reference value :  1.27499e-05
 Reference value :  1.30005e-05
 Reference value :  1.30006e-05
 Reference value :  1.30007e-05
 Reference value :  1.30009e-05
 Reference value :  1.30010e-05
 Reference value :  1.30010e-05
 Reference value :  1.30011e-05
 Reference value :  1.30012e-05
 Reference value :  1.30014e-05
 Reference value :  1.30018e-05
 Reference value :  1.30022e-05
 Reference value :  1.30028e-05
 Reference value :  1.30039e-05
 Reference value :  1.30060e-05
 Reference value :  1.30103e-05
 Reference value :  1.30190e-05
 Reference value :  1.30362e-05
 Reference value :  1.30707e-05
 Reference value :  1.31398e-05
 Reference value :  1.32268e-05
 Reference value :  1.33666e-05
 Reference value :  1.35669e-05
 Reference value :  1.39052e-05
 Reference value :  1.40000e-05
 Reference value :  1.40000e-05
 Reference value :  1.40002e-05
 Reference value :  1.40004e-05
 Reference value :  1.40005e-05
 Reference value :  1.40005e-05
 Reference value :  1.40005e-05
 Reference value :  1.40006e-05
 Reference value :  1.40007e-05
 Reference value :  1.40008e-05
 Reference value :  1.40012e-05
 Reference value :  1.40018e-05
 Reference value :  1.40032e-05
 Reference value :  1.40059e-05
 Reference value :  1.40112e-05
 Reference value :  1.40220e-05
 Reference value :  1.40434e-05
 Reference value :  1.40717e-05
 Reference value :  1.41054e-05
 Reference value :  1.41729e-05
 Reference value :  1.42613e-05
 Reference value :  1.43845e-05
 Reference value :  1.44991e-05
 Reference value :  1.47285e-05
 Reference value :  1.50005e-05
 Reference value :  1.50005e-05
 Reference value :  1.50007e-05
 Reference value :  1.50009e-05
 Reference value :  1.50010e-05
 Reference value :  1.50010e-05
 Reference value :  1.50011e-05
 Reference value :  1.50012e-05
 Reference value :  1.50014e-05
 Reference value :  1.50018e-05
 Reference value :  1.50022e-05
 Reference value :  1.50028e-05
 Reference value :  1.50039e-05
 Reference value :  1.50060e-05
 Reference value :  1.50103e-05
 Reference value :  1.50190e-05
 Reference value :  1.50362e-05
 Reference value :  1.50707e-05
 Reference value :  1.51398e-05
 Reference value :  1.52309e-05
 Reference value :  1.53742e-05
 Reference value :  1.55834e-05
 Reference value :  1.59409e-05
 Reference value :  1.60000e-05
 Reference value :  1.60000e-05
 Reference value :  1.60001e-05
 Reference value :  1.60004e-05
 Reference value :  1.60005e-05
 Reference value :  1.60005e-05
 Reference value :  1.60005e-05
 Reference value :  1.60006e-05
 Reference value :  1.60007e-05
 Reference value :  1.60008e-05
 Reference value :  1.60012e-05
 Reference value :  1.60018e-05
 Reference value :  1.60032e-05
 Reference value :  1.60059e-05
 Reference value :  1.60112e-05
 Reference value :  1.60220e-05
 Reference value :  1.60435e-05
 Reference value :  1.60719e-05
 Reference value :  1.61056e-05
 Reference value :  1.61730e-05
 Reference value :  1.62624e-05
 Reference value :  1.63863e-05
 Reference value :  1.65014e-05
 Reference value :  1.67315e-05
 Reference value :  1.70005e-05
 Reference value :  1.70006e-05
 Reference value :  1.70007e-05
 Reference value :  1.70009e-05
 Reference value :  1.70010e-05
 Reference value :  1.70010e-05
 Reference value :  1.70011e-05
 Reference value :  1.70012e-05
 Reference value :  1.70014e-05
 Reference value :  1.70018e-05
 Reference value :  1.70022e-05
 Reference value :  1.70028e-05
 Reference value :  1.70039e-05
 Reference value :  1.70060e-05
 Reference value :  1.70103e-05
 Reference value :  1.70190e-05
 Reference value :  1.70362e-05
 Reference value :  1.70707e-05
 Reference value :  1.71397e-05
 Reference value :  1.72328e-05
 Reference value :  1.73776e-05
 Reference value :  1.75911e-05
 Reference value :  1.79582e-05
 Reference value :  1.80000e-05
 Reference value :  1.80001e-05
 Reference value :  1.80002e-05
 Reference value :  1.80004e-05
 Reference value :  1.80005e-05
 Reference value :  1.80005e-05
 Reference value :  1.80005e-05
 Reference value :  1.80006e-05
 Reference value :  1.80007e-05
 Reference value :  1.80008e-05
 Reference value :  1.80012e-05
 Reference value :  1.80018e-05
 Reference value :  1.80032e-05
 Reference value :  1.80059e-05
 Reference value :  1.80112e-05
 Reference value :  1.80220e-05
 Reference value :  1.80435e-05
 Reference value :  1.80720e-05
 Reference value :  1.81057e-05
 Reference value :  1.81730e-05
 Reference value :  1.82630e-05
 Reference value :  1.83871e-05
 Reference value :  1.85023e-05
 Reference value :  1.87328e-05
 Reference value :  1.90005e-05
 Reference value :  1.90006e-05
 Reference value :  1.90007e-05
 Reference value :  1.90009e-05
 Reference value :  1.90010e-05
 Reference value :  1.90010e-05
 Reference value :  1.90011e-05
 Reference value :  1.90012e-05
 Reference value :  1.90014e-05
 Reference value :  1.90018e-05
 Reference value :  1.90022e-05
 Reference value :  1.90028e-05
 Reference value :  1.90039e-05
 Reference value :  1.90060e-05
 Reference value :  1.90103e-05
 Reference value :  1.90189e-05
 Reference value :  1.90362e-05
 Reference value :  1.90707e-05
 Reference value :  1.91397e-05
 Reference value :  1.92337e-05
 Reference value :  1.93793e-05
 Reference value :  1.95950e-05
 Reference value :  1.99673e-05
 Reference value :  2.00000e-05
 Reference value :  2.00001e-05
 Reference value :  2.00002e-05
 Reference value :  2.00004e-05
 Reference value :  2.00005e-05
 Reference value :  2.00005e-05
 Reference value :  2.00005e-05
 Reference value :  2.00006e-05
 Reference value :  2.00007e-05
 Reference value :  2.00008e-05
 Reference value :  2.00012e-05
 Reference value :  2.00018e-05
 Reference value :  2.00032e-05
 Reference value :  2.00059e-05
 Reference value :  2.00112e-05
 Reference value :  2.00220e-05
 Reference value :  2.00435e-05
 Reference value :  2.00720e-05
 Reference value :  2.01057e-05
 Reference value :  2.01731e-05
 Reference value :  2.02633e-05
 Reference value :  2.03877e-05
 Reference value :  2.05031e-05
 Reference value :  2.07339e-05
 Reference value :  2.10005e-05
 Reference value :  2.10005e-05
 Reference value :  2.10006e-05
 Reference value :  2.10008e-05
 Reference value :  2.10010e-05
 Reference value :  2.10010e-05
 Reference value :  2.10011e-05
 Reference value :  2.10012e-05
 Reference value :  2.10014e-05
 Reference value :  2.10018e-05
 Reference value :  2.10022e-05
 Reference value :  2.10028e-05
 Reference value :  2.10039e-05
 Reference value :  2.10060e-05
 Reference value :  2.10103e-05
 Reference value :  2.10189e-05
 Reference value :  2.10362e-05
 Reference value :  2.10707e-05
 Reference value :  2.11397e-05
 Reference value :  2.12343e-05
 Reference value :  2.13803e-05
 Reference value :  2.15971e-05
 Reference value :  2.19724e-05
 Reference value :  2.20000e-05
 Reference value :  2.20000e-05
 Reference value :  2.20001e-05
 Reference value :  2.20004e-05
 Reference value :  2.20005e-05
 Reference value :  2.20005e-05
 Reference value :  2.20005e-05
 Reference value :  2.20006e-05
 Reference value :  2.20007e-05
 Reference value :  2.20008e-05
 Reference value :  2.20012e-05
 Reference value :  2.20018e-05
 Reference value :  2.20032e-05
 Reference value :  2.20059e-05
 Reference value :  2.20112e-05
 Reference value :  2.20220e-05
 Reference value :  2.20435e-05
 Reference value :  2.20720e-05
 Reference value :  2.21057e-05
 Reference value :  2.21731e-05
 Reference value :  2.22635e-05
 Reference value :  2.23880e-05
 Reference value :  2.25035e-05
 Reference value :  2.27346e-05
 Reference value :  2.30005e-05
 Reference value :  2.30005e-05
 Reference value :  2.30006e-05
 Reference value :  2.30008e-05
 Reference value :  2.30010e-05
 Reference value :  2.30010e-05
 Reference value :  2.30011e-05
 Reference value :  2.30012e-05
 Reference value :  2.30014e-05
 Reference value :  2.30018e-05
 Reference value :  2.30022e-05
 Reference value :  2.30028e-05
 Reference value :  2.30039e-05
 Reference value :  2.30060e-05
 Reference value :  2.30103e-05
 Reference value :  2.30189e-05
 Reference value :  2.30362e-05
 Reference value :  2.30707e-05
 Reference value :  2.31397e-05
 Reference value :  2.32346e-05
 Reference value :  2.33808e-05
 Reference value :  2.35984e-05
 Reference value :  2.39754e-05
 Reference value :  2.40000e-05
 Reference value :  2.40001e-05
 Reference value :  2.40002e-05
 Reference value :  2.40004e-05
 Reference value :  2.40005e-05
 Reference value :  2.40005e-05
 Reference value :  2.40005e-05
 Reference value :  2.40006e-05
 Reference value :  2.40007e-05
 Reference value :  2.40008e-05
 Reference value :  2.40012e-05
 Reference value :  2.40018e-05
 Reference value :  2.40032e-05
 Reference value :  2.40059e-05
 Reference value :  2.40112e-05
 Reference value :  2.40220e-05
 Reference value :  2.40435e-05
 Reference value :  2.40721e-05
 Reference value :  2.41057e-05
 Reference value :  2.41731e-05
 Reference value :  2.42636e-05
 Reference value :  2.43882e-05
 Reference value :  2.45038e-05
 Reference value :  2.47350e-05
 Reference value :  2.50005e-05
 Reference value :  2.50005e-05
 Reference value :  2.50006e-05
 Reference value :  2.50008e-05
 Reference value :  2.50010e-05
 Reference value :  2.50010e-05
 Reference value :  2.50011e-05
 Reference value :  2.50012e-05
 Reference value :  2.50014e-05
 Reference value :  2.50018e-05
 Reference value :  2.50022e-05
 Reference value :  2.50028e-05
 Reference value :  2.50039e-05
 Reference value :  2.50060e-05
 Reference value :  2.50103e-05
 Reference value :  2.50189e-05
 Reference value :  2.50362e-05
 Reference value :  2.50707e-05
 Reference value :  2.51397e-05
 Reference value :  2.52348e-05
 Reference value :  2.53812e-05
 Reference value :  2.55991e-05
 Reference value :  2.59772e-05
 Reference value :  2.60000e-05
 Reference value :  2.60001e-05
 Reference value :  2.60002e-05
 Reference value :  2.60004e-05
 Reference value :  2.60005e-05
 Reference value :  2.60005e-05
 Reference value :  2.60005e-05
 Reference value :  2.60006e-05
 Reference value :  2.60007e-05
 Reference value :  2.60008e-05
 Reference value :  2.60012e-05
 Reference value :  2.60018e-05
 Reference value :  2.60032e-05
 Reference value :  2.60059e-05
 Reference value :  2.60112e-05
 Reference value :  2.60220e-05
 Reference value :  2.60435e-05
 Reference value :  2.60721e-05
 Reference value :  2.61057e-05
 Reference value :  2.61731e-05
 Reference value :  2.62637e-05
 Reference value :  2.63883e-05
 Reference value :  2.65039e-05
 Reference value :  2.67352e-05
 Reference value :  2.70005e-05
 Reference value :  2.70006e-05
 Reference value :  2.70007e-05
 Reference value :  2.70009e-05
 Reference value :  2.70010e-05
 Reference value :  2.70010e-05
 Reference value :  2.70011e-05
 Reference value :  2.70012e-05
 Reference value :  2.70014e-05
 Reference value :  2.70018e-05
 Reference value :  2.70022e-05
 Reference value :  2.70028e-05
 Reference value :  2.70039e-05
 Reference value :  2.70060e-05
 Reference value :  2.70103e-05
 Reference value :  2.70189e-05
 Reference value :  2.70362e-05
 Reference value :  2.70707e-05
 Reference value :  2.71397e-05
 Reference value :  2.72349e-05
 Reference value :  2.73814e-05
 Reference value :  2.75996e-05
 Reference value :  2.79783e-05
 Reference value :  2.80000e-05
 Reference value :  2.80000e-05
 Reference value :  2.80001e-05
 Reference value :  2.80004e-05
 Reference value :  2.80005e-05
 Reference value :  2.80005e-05
 Reference value :  2.80005e-05
 Reference value :  2.80006e-05
 Reference value :  2.80007e-05
 Reference value :  2.80008e-05
 Reference value :  2.80012e-05
 Reference value :  2.80018e-05
 Reference value :  2.80032e-05
 Reference value :  2.80059e-05
 Reference value :  2.80112e-05
 Reference value :  2.80220e-05
 Reference value :  2.80435e-05
 Reference value :  2.80721e-05
 Reference value :  2.81058e-05
 Reference value :  2.81731e-05
 Reference value :  2.82637e-05
 Reference value :  2.83883e-05
 Reference value :  2.85040e-05
 Reference value :  2.87353e-05
 Reference value :  2.90005e-05
 Reference value :  2.90006e-05
 Reference value :  2.90007e-05
 Reference value :  2.90009e-05
 Reference value :  2.90010e-05
 Reference value :  2.90010e-05
 Reference value :  2.90011e-05
 Reference value :  2.90012e-05
 Reference value :  2.90014e-05
 Reference value :  2.90018e-05
 Reference value :  2.90022e-05
 Reference value :  2.90028e-05
 Reference value :  2.90039e-05
 Reference value :  2.90060e-05
 Reference value :  2.90103e-05
 Reference value :  2.90189e-05
 Reference value :  2.90362e-05
 Reference value :  2.90707e-05
 Reference value :  2.91397e-05
 Reference value :  2.92350e-05
 Reference value :  2.93815e-05
 Reference value :  2.95998e-05
 Reference value :  2.99790e-05
 Reference value :  3.00000e-05
 Reference value :  3.00001e-05
 Reference value :  3.00002e-05
 Reference value :  3.00004e-05
 Reference value :  3.00005e-05
 Reference value :  3.00005e-05
 Reference value :  3.00005e-05
 Reference value :  3.00006e-05
 Reference value :  3.00007e-05
 Reference value :  3.00008e-05
 Reference value :  3.00012e-05
 Reference value :  3.00018e-05
 Reference value :  3.00032e-05
 Reference value :  3.00059e-05
 Reference value :  3.00112e-05
 Reference value :  3.00220e-05
 Reference value :  3.00435e-05
 Reference value :  3.00721e-05
 Reference value :  3.01058e-05
 Reference value :  3.01731e-05
 Reference value :  3.02637e-05
 Reference value :  3.03884e-05
 Reference value :  3.05040e-05
 Reference value :  3.07354e-05
 Reference value :  3.10005e-05
 Reference value :  3.10005e-05
 Reference value :  3.10006e-05
 Reference value :  3.10008e-05
 Reference value :  3.10010e-05
 Reference value :  3.10010e-05
 Reference value :  3.10011e-05
 Reference value :  3.10012e-05
 Reference value :  3.10014e-05
 Reference value :  3.10018e-05
 Reference value :  3.10022e-05
 Reference value :  3.10028e-05
 Reference value :  3.10039e-05
 Reference value :  3.10060e-05
 Reference value :  3.10103e-05
 Reference value :  3.10189e-05
 Reference value :  3.10362e-05
 Reference value :  3.10707e-05
 Reference value :  3.11397e-05
 Reference value :  3.12350e-05
 Reference value :  3.13816e-05
 Reference value :  3.16000e-05
 Reference value :  3.19794e-05
 Reference value :  3.20000e-05
 Reference value :  3.20000e-05
 Reference value :  3.20001e-05
 Reference value :  3.20003e-05
 Reference value :  3.20005e-05
 Reference value :  3.20005e-05
 Reference value :  3.20005e-05
 Reference value :  3.20006e-05
 Reference value :  3.20007e-05
 Reference value :  3.20008e-05
 Reference value :  3.20012e-05
 Reference value :  3.20018e-05
 Reference value :  3.20032e-05
 Reference value :  3.20059e-05
 Reference value :  3.20112e-05
 Reference value :  3.20220e-05
 Reference value :  3.20435e-05
 Reference value :  3.20721e-05
 Reference value :  3.21058e-05
 Reference value :  3.21731e-05
 Reference value :  3.22637e-05
 Reference value :  3.23884e-05
 Reference value :  3.25041e-05
 Reference value :  3.27354e-05
 Reference value :  3.30005e-05
 Reference value :  3.30006e-05
 Reference value :  3.30007e-05
 Reference value :  3.30009e-05
 Reference value :  3.30010e-05
 Reference value :  3.30010e-05
 Reference value :  3.30011e-05
 Reference value :  3.30012e-05
 Reference value :  3.30014e-05
 Reference value :  3.30018e-05
 Reference value :  3.30022e-05
 Reference value :  3.30028e-05
 Reference value :  3.30039e-05
 Reference value :  3.30060e-05
 Reference value :  3.30103e-05
 Reference value :  3.30189e-05
 Reference value :  3.30362e-05
 Reference value :  3.30707e-05
 Reference value :  3.31396e-05
 Reference value :  3.32350e-05
 Reference value :  3.33816e-05
 Reference value :  3.36001e-05
 Reference value :  3.39797e-05
 Reference value :  3.40000e-05
No. of Data Rows : 940
ngspice-44 done
