
Note: Compatibility modes selected: hs a


Circuit: ** sch_path: /home/ece/cace/sar-adc-using-sky130-pdk/runs/run_2025-09-12_19-58-11/parameters/sndr/run_0/sndr_enob_fom.sch

option SCALE: Scale is set to 1e-06 for instance and model parameters
option SCALE: Scale is set to 1e-06 for instance and model parameters
option SCALE: Scale is set to 1e-06 for instance and model parameters
option SCALE: Scale is set to 1e-06 for instance and model parameters
Doing analysis at TEMP = 27.000000 and TNOM = 27.000000

Using KLU as Direct Linear Solver
Operating point simulation skipped by 'uic',
  now using transient initial conditions.
 Reference value :  1.00000e-12
 Reference value :  1.02772e-12
 Reference value :  1.08316e-12
 Reference value :  1.19404e-12
 Reference value :  1.33849e-12
 Reference value :  1.62739e-12
 Reference value :  2.20519e-12
 Reference value :  3.06253e-12
 Reference value :  3.96259e-12
 Reference value :  5.17146e-12
 Reference value :  6.88018e-12
 Reference value :  1.00406e-11
 Reference value :  1.36998e-11
 Reference value :  2.03442e-11
 Reference value :  2.72074e-11
 Reference value :  3.61577e-11
 Reference value :  4.70693e-11
 Reference value :  6.49724e-11
 Reference value :  8.38218e-11
 Reference value :  1.00000e-10
 Reference value :  1.01366e-10
 Reference value :  1.04099e-10
 Reference value :  1.09564e-10
 Reference value :  1.20494e-10
 Reference value :  1.42355e-10
 Reference value :  1.86076e-10
 Reference value :  2.73518e-10
 Reference value :  4.25057e-10
 Reference value :  5.99551e-10
 Reference value :  8.76064e-10
 Reference value :  1.27036e-09
 Reference value :  1.73570e-09
 Reference value :  2.47858e-09
 Reference value :  3.22156e-09
 Reference value :  4.29525e-09
 Reference value :  5.17562e-09
 Reference value :  6.08535e-09
 Reference value :  7.47320e-09
 Reference value :  8.72300e-09
 Reference value :  1.06341e-08
 Reference value :  1.24331e-08
 Reference value :  1.44305e-08
 Reference value :  1.59466e-08
 Reference value :  1.74208e-08
 Reference value :  1.87979e-08
 Reference value :  2.04126e-08
 Reference value :  2.24114e-08
 Reference value :  2.55736e-08
 Reference value :  2.99310e-08
 Reference value :  3.50039e-08
 Reference value :  4.16947e-08
 Reference value :  4.72261e-08
 Reference value :  5.28331e-08
 Reference value :  5.65970e-08
 Reference value :  6.05188e-08
 Reference value :  6.45551e-08
 Reference value :  7.00658e-08
 Reference value :  7.65574e-08
 Reference value :  8.39733e-08
 Reference value :  9.20197e-08
 Reference value :  1.07496e-07
 Reference value :  1.34227e-07
 Reference value :  1.87688e-07
 Reference value :  2.50100e-07
 Reference value :  2.50110e-07
 Reference value :  2.50130e-07
 Reference value :  2.50170e-07
 Reference value :  2.50200e-07
 Reference value :  2.50201e-07
 Reference value :  2.50202e-07
 Reference value :  2.50204e-07
 Reference value :  2.50208e-07
 Reference value :  2.50216e-07
 Reference value :  2.50233e-07
 Reference value :  2.50267e-07
 Reference value :  2.50335e-07
 Reference value :  2.50414e-07
 Reference value :  2.50571e-07
 Reference value :  2.50721e-07
 Reference value :  2.51020e-07
 Reference value :  2.51346e-07
 Reference value :  2.51865e-07
 Reference value :  2.52432e-07
 Reference value :  2.53231e-07
 Reference value :  2.54055e-07
 Reference value :  2.55141e-07
 Reference value :  2.55903e-07
 Reference value :  2.56756e-07
 Reference value :  2.57778e-07
 Reference value :  2.58836e-07
 Reference value :  2.60170e-07
 Reference value :  2.62178e-07
 Reference value :  2.64294e-07
 Reference value :  2.67704e-07
 Reference value :  2.72483e-07
 Reference value :  2.82042e-07
 Reference value :  2.98597e-07
 Reference value :  3.31707e-07
 Reference value :  3.97928e-07
 Reference value :  5.00000e-07
 Reference value :  5.00010e-07
 Reference value :  5.00030e-07
 Reference value :  5.00070e-07
 Reference value :  5.00100e-07
 Reference value :  5.00104e-07
 Reference value :  5.00113e-07
 Reference value :  5.00129e-07
 Reference value :  5.00163e-07
 Reference value :  5.00230e-07
 Reference value :  5.00364e-07
 Reference value :  5.00540e-07
 Reference value :  5.00892e-07
 Reference value :  5.01511e-07
 Reference value :  5.02197e-07
 Reference value :  5.02777e-07
 Reference value :  5.03502e-07
 Reference value :  5.04175e-07
 Reference value :  5.05163e-07
 Reference value :  5.06137e-07
 Reference value :  5.07119e-07
 Reference value :  5.08547e-07
 Reference value :  5.09910e-07
 Reference value :  5.11811e-07
 Reference value :  5.14084e-07
 Reference value :  5.15951e-07
 Reference value :  5.17921e-07
 Reference value :  5.19964e-07
 Reference value :  5.22361e-07
 Reference value :  5.25017e-07
 Reference value :  5.27775e-07
 Reference value :  5.32956e-07
 Reference value :  5.41106e-07
 Reference value :  5.50770e-07
 Reference value :  5.70097e-07
 Reference value :  6.07355e-07
 Reference value :  6.77116e-07
 Reference value :  7.50100e-07
 Reference value :  7.50110e-07
 Reference value :  7.50130e-07
 Reference value :  7.50170e-07
 Reference value :  7.50200e-07
 Reference value :  7.50201e-07
 Reference value :  7.50202e-07
 Reference value :  7.50205e-07
 Reference value :  7.50211e-07
 Reference value :  7.50224e-07
 Reference value :  7.50248e-07
 Reference value :  7.50297e-07
 Reference value :  7.50395e-07
 Reference value :  7.50590e-07
 Reference value :  7.50977e-07
 Reference value :  7.51389e-07
 Reference value :  7.51911e-07
 Reference value :  7.52518e-07
 Reference value :  7.53316e-07
 Reference value :  7.54225e-07
 Reference value :  7.55416e-07
 Reference value :  7.56522e-07
 Reference value :  7.57526e-07
 Reference value :  7.58616e-07
 Reference value :  7.59822e-07
 Reference value :  7.61121e-07
 Reference value :  7.62379e-07
 Reference value :  7.63835e-07
 Reference value :  7.66055e-07
 Reference value :  7.68391e-07
 Reference value :  7.72353e-07
 Reference value :  7.80007e-07
 Reference value :  7.91418e-07
 Reference value :  8.13382e-07
 Reference value :  8.49736e-07
 Reference value :  9.14211e-07
 Reference value :  1.00000e-06
 Reference value :  1.00001e-06
 Reference value :  1.00003e-06
 Reference value :  1.00007e-06
 Reference value :  1.00010e-06
 Reference value :  1.00010e-06
 Reference value :  1.00011e-06
 Reference value :  1.00013e-06
 Reference value :  1.00016e-06
 Reference value :  1.00023e-06
 Reference value :  1.00036e-06
 Reference value :  1.00054e-06
 Reference value :  1.00089e-06
 Reference value :  1.00150e-06
 Reference value :  1.00219e-06
 Reference value :  1.00281e-06
 Reference value :  1.00346e-06
 Reference value :  1.00415e-06
 Reference value :  1.00499e-06
 Reference value :  1.00589e-06
 Reference value :  1.00676e-06
 Reference value :  1.00765e-06
 Reference value :  1.00864e-06
 Reference value :  1.00966e-06
 Reference value :  1.01059e-06
 Reference value :  1.01205e-06
 Reference value :  1.01354e-06
 Reference value :  1.01595e-06
 Reference value :  1.01768e-06
 Reference value :  1.01951e-06
 Reference value :  1.02118e-06
 Reference value :  1.02266e-06
 Reference value :  1.02413e-06
 Reference value :  1.02573e-06
 Reference value :  1.02720e-06
 Reference value :  1.02903e-06
 Reference value :  1.03119e-06
 Reference value :  1.03359e-06
 Reference value :  1.03801e-06
 Reference value :  1.04420e-06
 Reference value :  1.05505e-06
 Reference value :  1.07383e-06
 Reference value :  1.10516e-06
 Reference value :  1.16114e-06
 Reference value :  1.23302e-06
 Reference value :  1.25010e-06
 Reference value :  1.25011e-06
 Reference value :  1.25013e-06
 Reference value :  1.25017e-06
 Reference value :  1.25020e-06
 Reference value :  1.25020e-06
 Reference value :  1.25020e-06
 Reference value :  1.25021e-06
 Reference value :  1.25021e-06
 Reference value :  1.25022e-06
 Reference value :  1.25025e-06
 Reference value :  1.25030e-06
 Reference value :  1.25039e-06
 Reference value :  1.25059e-06
 Reference value :  1.25094e-06
 Reference value :  1.25136e-06
 Reference value :  1.25188e-06
 Reference value :  1.25249e-06
 Reference value :  1.25326e-06
 Reference value :  1.25414e-06
 Reference value :  1.25530e-06
 Reference value :  1.25620e-06
 Reference value :  1.25715e-06
 Reference value :  1.25821e-06
 Reference value :  1.25979e-06
 Reference value :  1.26126e-06
 Reference value :  1.26376e-06
 Reference value :  1.26673e-06
 Reference value :  1.27216e-06
 Reference value :  1.28302e-06
 Reference value :  1.30230e-06
 Reference value :  1.34086e-06
 Reference value :  1.41367e-06
 Reference value :  1.49056e-06
 Reference value :  1.50000e-06
 Reference value :  1.50001e-06
 Reference value :  1.50003e-06
 Reference value :  1.50007e-06
 Reference value :  1.50010e-06
 Reference value :  1.50010e-06
 Reference value :  1.50011e-06
 Reference value :  1.50013e-06
 Reference value :  1.50016e-06
 Reference value :  1.50023e-06
 Reference value :  1.50036e-06
 Reference value :  1.50053e-06
 Reference value :  1.50087e-06
 Reference value :  1.50144e-06
 Reference value :  1.50221e-06
 Reference value :  1.50284e-06
 Reference value :  1.50351e-06
 Reference value :  1.50420e-06
 Reference value :  1.50516e-06
 Reference value :  1.50613e-06
 Reference value :  1.50707e-06
 Reference value :  1.50856e-06
 Reference value :  1.50992e-06
 Reference value :  1.51130e-06
 Reference value :  1.51286e-06
 Reference value :  1.51463e-06
 Reference value :  1.51631e-06
 Reference value :  1.51818e-06
 Reference value :  1.52052e-06
 Reference value :  1.52387e-06
 Reference value :  1.52948e-06
 Reference value :  1.53890e-06
 Reference value :  1.55637e-06
 Reference value :  1.58846e-06
 Reference value :  1.64881e-06
 Reference value :  1.75010e-06
 Reference value :  1.75011e-06
 Reference value :  1.75013e-06
 Reference value :  1.75017e-06
 Reference value :  1.75020e-06
 Reference value :  1.75020e-06
 Reference value :  1.75020e-06
 Reference value :  1.75021e-06
 Reference value :  1.75021e-06
 Reference value :  1.75022e-06
 Reference value :  1.75025e-06
 Reference value :  1.75030e-06
 Reference value :  1.75039e-06
 Reference value :  1.75059e-06
 Reference value :  1.75094e-06
 Reference value :  1.75136e-06
 Reference value :  1.75188e-06
 Reference value :  1.75249e-06
 Reference value :  1.75326e-06
 Reference value :  1.75413e-06
 Reference value :  1.75531e-06
 Reference value :  1.75623e-06
 Reference value :  1.75720e-06
 Reference value :  1.75823e-06
 Reference value :  1.75934e-06
 Reference value :  1.76057e-06
 Reference value :  1.76185e-06
 Reference value :  1.76325e-06
 Reference value :  1.76538e-06
 Reference value :  1.76771e-06
 Reference value :  1.77132e-06
 Reference value :  1.77701e-06
 Reference value :  1.78841e-06
 Reference value :  1.81120e-06
 Reference value :  1.85677e-06
 Reference value :  1.94793e-06
 Reference value :  2.00000e-06
 Reference value :  2.00001e-06
 Reference value :  2.00003e-06
 Reference value :  2.00007e-06
 Reference value :  2.00010e-06
 Reference value :  2.00010e-06
 Reference value :  2.00011e-06
 Reference value :  2.00013e-06
 Reference value :  2.00016e-06
 Reference value :  2.00023e-06
 Reference value :  2.00036e-06
 Reference value :  2.00053e-06
 Reference value :  2.00087e-06
 Reference value :  2.00144e-06
 Reference value :  2.00221e-06
 Reference value :  2.00288e-06
 Reference value :  2.00356e-06
 Reference value :  2.00427e-06
 Reference value :  2.00514e-06
 Reference value :  2.00590e-06
 Reference value :  2.00673e-06
 Reference value :  2.00781e-06
 Reference value :  2.00879e-06
 Reference value :  2.00973e-06
 Reference value :  2.01077e-06
 Reference value :  2.01213e-06
 Reference value :  2.01366e-06
 Reference value :  2.01583e-06
 Reference value :  2.01736e-06
 Reference value :  2.01907e-06
 Reference value :  2.02083e-06
 Reference value :  2.02217e-06
 Reference value :  2.02348e-06
 Reference value :  2.02487e-06
 Reference value :  2.02632e-06
 Reference value :  2.02800e-06
 Reference value :  2.02970e-06
 Reference value :  2.03253e-06
 Reference value :  2.03515e-06
 Reference value :  2.04039e-06
 Reference value :  2.04985e-06
 Reference value :  2.06374e-06
 Reference value :  2.08787e-06
 Reference value :  2.12660e-06
 Reference value :  2.18235e-06
 Reference value :  2.25010e-06
 Reference value :  2.25011e-06
 Reference value :  2.25013e-06
 Reference value :  2.25017e-06
 Reference value :  2.25020e-06
 Reference value :  2.25020e-06
 Reference value :  2.25020e-06
 Reference value :  2.25021e-06
 Reference value :  2.25021e-06
 Reference value :  2.25022e-06
 Reference value :  2.25025e-06
 Reference value :  2.25030e-06
 Reference value :  2.25039e-06
 Reference value :  2.25059e-06
 Reference value :  2.25094e-06
 Reference value :  2.25136e-06
 Reference value :  2.25188e-06
 Reference value :  2.25249e-06
 Reference value :  2.25325e-06
 Reference value :  2.25413e-06
 Reference value :  2.25529e-06
 Reference value :  2.25619e-06
 Reference value :  2.25714e-06
 Reference value :  2.25821e-06
 Reference value :  2.25978e-06
 Reference value :  2.26127e-06
 Reference value :  2.26377e-06
 Reference value :  2.26674e-06
 Reference value :  2.27216e-06
 Reference value :  2.28300e-06
 Reference value :  2.30208e-06
 Reference value :  2.34026e-06
 Reference value :  2.40247e-06
 Reference value :  2.46841e-06
 Reference value :  2.50000e-06
 Reference value :  2.50001e-06
 Reference value :  2.50003e-06
 Reference value :  2.50007e-06
 Reference value :  2.50010e-06
 Reference value :  2.50010e-06
 Reference value :  2.50011e-06
 Reference value :  2.50013e-06
 Reference value :  2.50016e-06
 Reference value :  2.50023e-06
 Reference value :  2.50036e-06
 Reference value :  2.50053e-06
 Reference value :  2.50087e-06
 Reference value :  2.50144e-06
 Reference value :  2.50221e-06
 Reference value :  2.50284e-06
 Reference value :  2.50350e-06
 Reference value :  2.50420e-06
 Reference value :  2.50515e-06
 Reference value :  2.50612e-06
 Reference value :  2.50707e-06
 Reference value :  2.50856e-06
 Reference value :  2.50992e-06
 Reference value :  2.51129e-06
 Reference value :  2.51284e-06
 Reference value :  2.51462e-06
 Reference value :  2.51629e-06
 Reference value :  2.51823e-06
 Reference value :  2.52044e-06
 Reference value :  2.52436e-06
 Reference value :  2.53048e-06
 Reference value :  2.54174e-06
 Reference value :  2.56372e-06
 Reference value :  2.60318e-06
 Reference value :  2.68210e-06
 Reference value :  2.75010e-06
 Reference value :  2.75011e-06
 Reference value :  2.75013e-06
 Reference value :  2.75017e-06
 Reference value :  2.75020e-06
 Reference value :  2.75020e-06
 Reference value :  2.75020e-06
 Reference value :  2.75021e-06
 Reference value :  2.75021e-06
 Reference value :  2.75022e-06
 Reference value :  2.75025e-06
 Reference value :  2.75030e-06
 Reference value :  2.75039e-06
 Reference value :  2.75059e-06
 Reference value :  2.75094e-06
 Reference value :  2.75136e-06
 Reference value :  2.75188e-06
 Reference value :  2.75249e-06
 Reference value :  2.75325e-06
 Reference value :  2.75413e-06
 Reference value :  2.75531e-06
 Reference value :  2.75623e-06
 Reference value :  2.75720e-06
 Reference value :  2.75823e-06
 Reference value :  2.75934e-06
 Reference value :  2.76056e-06
 Reference value :  2.76184e-06
 Reference value :  2.76324e-06
 Reference value :  2.76537e-06
 Reference value :  2.76770e-06
 Reference value :  2.77129e-06
 Reference value :  2.77697e-06
 Reference value :  2.78833e-06
 Reference value :  2.81104e-06
 Reference value :  2.85647e-06
 Reference value :  2.94732e-06
 Reference value :  3.00000e-06
 Reference value :  3.00001e-06
 Reference value :  3.00003e-06
 Reference value :  3.00007e-06
 Reference value :  3.00010e-06
 Reference value :  3.00010e-06
 Reference value :  3.00011e-06
 Reference value :  3.00013e-06
 Reference value :  3.00016e-06
 Reference value :  3.00023e-06
 Reference value :  3.00036e-06
 Reference value :  3.00053e-06
 Reference value :  3.00087e-06
 Reference value :  3.00144e-06
 Reference value :  3.00221e-06
 Reference value :  3.00288e-06
 Reference value :  3.00356e-06
 Reference value :  3.00427e-06
 Reference value :  3.00513e-06
 Reference value :  3.00590e-06
 Reference value :  3.00673e-06
 Reference value :  3.00780e-06
 Reference value :  3.00879e-06
 Reference value :  3.00972e-06
 Reference value :  3.01075e-06
 Reference value :  3.01209e-06
 Reference value :  3.01365e-06
 Reference value :  3.01521e-06
 Reference value :  3.01692e-06
 Reference value :  3.01854e-06
 Reference value :  3.02024e-06
 Reference value :  3.02149e-06
 Reference value :  3.02267e-06
 Reference value :  3.02410e-06
 Reference value :  3.02557e-06
 Reference value :  3.02695e-06
 Reference value :  3.02868e-06
 Reference value :  3.03085e-06
 Reference value :  3.03321e-06
 Reference value :  3.03762e-06
 Reference value :  3.04408e-06
 Reference value :  3.05532e-06
 Reference value :  3.07152e-06
 Reference value :  3.08758e-06
 Reference value :  3.10420e-06
 Reference value :  3.11577e-06
 Reference value :  3.12682e-06
 Reference value :  3.13901e-06
 Reference value :  3.15156e-06
 Reference value :  3.17276e-06
 Reference value :  3.19570e-06
 Reference value :  3.22974e-06
 Reference value :  3.25010e-06
 Reference value :  3.25011e-06
 Reference value :  3.25013e-06
 Reference value :  3.25017e-06
 Reference value :  3.25020e-06
 Reference value :  3.25020e-06
 Reference value :  3.25020e-06
 Reference value :  3.25021e-06
 Reference value :  3.25021e-06
 Reference value :  3.25022e-06
 Reference value :  3.25025e-06
 Reference value :  3.25029e-06
 Reference value :  3.25039e-06
 Reference value :  3.25058e-06
 Reference value :  3.25092e-06
 Reference value :  3.25134e-06
 Reference value :  3.25187e-06
 Reference value :  3.25248e-06
 Reference value :  3.25323e-06
 Reference value :  3.25411e-06
 Reference value :  3.25530e-06
 Reference value :  3.25619e-06
 Reference value :  3.25713e-06
 Reference value :  3.25821e-06
 Reference value :  3.25976e-06
 Reference value :  3.26118e-06
 Reference value :  3.26374e-06
 Reference value :  3.26664e-06
 Reference value :  3.27209e-06
 Reference value :  3.28298e-06
 Reference value :  3.30220e-06
 Reference value :  3.34064e-06
 Reference value :  3.41364e-06
 Reference value :  3.50000e-06
 Reference value :  3.50001e-06
 Reference value :  3.50003e-06
 Reference value :  3.50007e-06
 Reference value :  3.50010e-06
 Reference value :  3.50010e-06
 Reference value :  3.50011e-06
 Reference value :  3.50013e-06
 Reference value :  3.50016e-06
 Reference value :  3.50023e-06
 Reference value :  3.50036e-06
 Reference value :  3.50053e-06
 Reference value :  3.50087e-06
 Reference value :  3.50145e-06
 Reference value :  3.50221e-06
 Reference value :  3.50288e-06
 Reference value :  3.50356e-06
 Reference value :  3.50426e-06
 Reference value :  3.50524e-06
 Reference value :  3.50619e-06
 Reference value :  3.50717e-06
 Reference value :  3.50861e-06
 Reference value :  3.50999e-06
 Reference value :  3.51128e-06
 Reference value :  3.51264e-06
 Reference value :  3.51417e-06
 Reference value :  3.51583e-06
 Reference value :  3.51764e-06
 Reference value :  3.51966e-06
 Reference value :  3.52355e-06
 Reference value :  3.52953e-06
 Reference value :  3.54151e-06
 Reference value :  3.56416e-06
 Reference value :  3.60480e-06
 Reference value :  3.68506e-06
 Reference value :  3.75010e-06
 Reference value :  3.75011e-06
 Reference value :  3.75013e-06
 Reference value :  3.75017e-06
 Reference value :  3.75020e-06
 Reference value :  3.75020e-06
 Reference value :  3.75020e-06
 Reference value :  3.75021e-06
 Reference value :  3.75021e-06
 Reference value :  3.75022e-06
 Reference value :  3.75025e-06
 Reference value :  3.75030e-06
 Reference value :  3.75039e-06
 Reference value :  3.75059e-06
 Reference value :  3.75094e-06
 Reference value :  3.75136e-06
 Reference value :  3.75188e-06
 Reference value :  3.75249e-06
 Reference value :  3.75325e-06
 Reference value :  3.75413e-06
 Reference value :  3.75531e-06
 Reference value :  3.75623e-06
 Reference value :  3.75719e-06
 Reference value :  3.75822e-06
 Reference value :  3.75933e-06
 Reference value :  3.76056e-06
 Reference value :  3.76300e-06
 Reference value :  3.76566e-06
 Reference value :  3.77032e-06
 Reference value :  3.77880e-06
 Reference value :  3.79575e-06
 Reference value :  3.82933e-06
 Reference value :  3.89435e-06
 Reference value :  4.00000e-06
 Reference value :  4.00001e-06
 Reference value :  4.00003e-06
 Reference value :  4.00007e-06
 Reference value :  4.00010e-06
 Reference value :  4.00010e-06
 Reference value :  4.00011e-06
 Reference value :  4.00013e-06
 Reference value :  4.00016e-06
 Reference value :  4.00023e-06
 Reference value :  4.00036e-06
 Reference value :  4.00053e-06
 Reference value :  4.00087e-06
 Reference value :  4.00145e-06
 Reference value :  4.00221e-06
 Reference value :  4.00288e-06
 Reference value :  4.00356e-06
 Reference value :  4.00427e-06
 Reference value :  4.00525e-06
 Reference value :  4.00603e-06
 Reference value :  4.00685e-06
 Reference value :  4.00785e-06
 Reference value :  4.00893e-06
 Reference value :  4.00993e-06
 Reference value :  4.01098e-06
 Reference value :  4.01233e-06
 Reference value :  4.01406e-06
 Reference value :  4.01669e-06
 Reference value :  4.01868e-06
 Reference value :  4.02081e-06
 Reference value :  4.02224e-06
 Reference value :  4.02375e-06
 Reference value :  4.02519e-06
 Reference value :  4.02677e-06
 Reference value :  4.02848e-06
 Reference value :  4.03062e-06
 Reference value :  4.03292e-06
 Reference value :  4.03737e-06
 Reference value :  4.04312e-06
 Reference value :  4.04893e-06
 Reference value :  4.05534e-06
 Reference value :  4.06160e-06
 Reference value :  4.06630e-06
 Reference value :  4.07099e-06
 Reference value :  4.07577e-06
 Reference value :  4.08152e-06
 Reference value :  4.08837e-06
 Reference value :  4.09448e-06
 Reference value :  4.10153e-06
 Reference value :  4.11440e-06
 Reference value :  4.12897e-06
 Reference value :  4.15290e-06
 Reference value :  4.18712e-06
 Reference value :  4.24354e-06
 Reference value :  4.25010e-06
 Reference value :  4.25011e-06
 Reference value :  4.25013e-06
 Reference value :  4.25017e-06
 Reference value :  4.25020e-06
 Reference value :  4.25020e-06
 Reference value :  4.25020e-06
 Reference value :  4.25021e-06
 Reference value :  4.25021e-06
 Reference value :  4.25022e-06
 Reference value :  4.25025e-06
 Reference value :  4.25029e-06
 Reference value :  4.25039e-06
 Reference value :  4.25058e-06
 Reference value :  4.25092e-06
 Reference value :  4.25134e-06
 Reference value :  4.25187e-06
 Reference value :  4.25248e-06
 Reference value :  4.25323e-06
 Reference value :  4.25411e-06
 Reference value :  4.25524e-06
 Reference value :  4.25616e-06
 Reference value :  4.25712e-06
 Reference value :  4.25819e-06
 Reference value :  4.25979e-06
 Reference value :  4.26130e-06
 Reference value :  4.26381e-06
 Reference value :  4.26675e-06
 Reference value :  4.27208e-06
 Reference value :  4.28274e-06
 Reference value :  4.30162e-06
 Reference value :  4.33929e-06
 Reference value :  4.41000e-06
 Reference value :  4.50000e-06
 Reference value :  4.50001e-06
 Reference value :  4.50003e-06
 Reference value :  4.50007e-06
 Reference value :  4.50010e-06
 Reference value :  4.50010e-06
 Reference value :  4.50011e-06
 Reference value :  4.50013e-06
 Reference value :  4.50016e-06
 Reference value :  4.50023e-06
 Reference value :  4.50036e-06
 Reference value :  4.50053e-06
 Reference value :  4.50087e-06
 Reference value :  4.50145e-06
 Reference value :  4.50221e-06
 Reference value :  4.50284e-06
 Reference value :  4.50350e-06
 Reference value :  4.50419e-06
 Reference value :  4.50515e-06
 Reference value :  4.50611e-06
 Reference value :  4.50705e-06
 Reference value :  4.50854e-06
 Reference value :  4.50989e-06
 Reference value :  4.51119e-06
 Reference value :  4.51260e-06
 Reference value :  4.51393e-06
 Reference value :  4.51546e-06
 Reference value :  4.51706e-06
 Reference value :  4.51881e-06
 Reference value :  4.52230e-06
 Reference value :  4.52930e-06
 Reference value :  4.54114e-06
 Reference value :  4.56481e-06
 Reference value :  4.60922e-06
 Reference value :  4.69806e-06
 Reference value :  4.75010e-06
 Reference value :  4.75011e-06
 Reference value :  4.75013e-06
 Reference value :  4.75017e-06
 Reference value :  4.75020e-06
 Reference value :  4.75020e-06
 Reference value :  4.75020e-06
 Reference value :  4.75021e-06
 Reference value :  4.75021e-06
 Reference value :  4.75022e-06
 Reference value :  4.75025e-06
 Reference value :  4.75030e-06
 Reference value :  4.75039e-06
 Reference value :  4.75059e-06
 Reference value :  4.75093e-06
 Reference value :  4.75136e-06
 Reference value :  4.75188e-06
 Reference value :  4.75249e-06
 Reference value :  4.75325e-06
 Reference value :  4.75413e-06
 Reference value :  4.75531e-06
 Reference value :  4.75623e-06
 Reference value :  4.75720e-06
 Reference value :  4.75822e-06
 Reference value :  4.75933e-06
 Reference value :  4.76056e-06
 Reference value :  4.76184e-06
 Reference value :  4.76324e-06
 Reference value :  4.76537e-06
 Reference value :  4.76769e-06
 Reference value :  4.77130e-06
 Reference value :  4.77700e-06
 Reference value :  4.78841e-06
 Reference value :  4.81121e-06
 Reference value :  4.85645e-06
 Reference value :  4.94693e-06
 Reference value :  5.00000e-06
 Reference value :  5.00001e-06
 Reference value :  5.00003e-06
 Reference value :  5.00007e-06
 Reference value :  5.00010e-06
 Reference value :  5.00010e-06
 Reference value :  5.00011e-06
 Reference value :  5.00013e-06
 Reference value :  5.00016e-06
 Reference value :  5.00023e-06
 Reference value :  5.00036e-06
 Reference value :  5.00053e-06
 Reference value :  5.00087e-06
 Reference value :  5.00144e-06
 Reference value :  5.00221e-06
 Reference value :  5.00288e-06
 Reference value :  5.00356e-06
 Reference value :  5.00427e-06
 Reference value :  5.00524e-06
 Reference value :  5.00602e-06
 Reference value :  5.00684e-06
 Reference value :  5.00781e-06
 Reference value :  5.00872e-06
 Reference value :  5.00969e-06
 Reference value :  5.01066e-06
 Reference value :  5.01191e-06
 Reference value :  5.01360e-06
 Reference value :  5.01479e-06
 Reference value :  5.01618e-06
 Reference value :  5.01761e-06
 Reference value :  5.01924e-06
 Reference value :  5.02108e-06
 Reference value :  5.02256e-06
 Reference value :  5.02411e-06
 Reference value :  5.02556e-06
 Reference value :  5.02712e-06
 Reference value :  5.02885e-06
 Reference value :  5.03107e-06
 Reference value :  5.03341e-06
 Reference value :  5.03794e-06
 Reference value :  5.04427e-06
 Reference value :  5.05536e-06
 Reference value :  5.06581e-06
 Reference value :  5.07671e-06
 Reference value :  5.08673e-06
 Reference value :  5.10131e-06
 Reference value :  5.12045e-06
 Reference value :  5.15444e-06
 Reference value :  5.17821e-06
 Reference value :  5.19863e-06
 Reference value :  5.22541e-06
 Reference value :  5.25010e-06
 Reference value :  5.25011e-06
 Reference value :  5.25013e-06
 Reference value :  5.25017e-06
 Reference value :  5.25020e-06
 Reference value :  5.25020e-06
 Reference value :  5.25020e-06
 Reference value :  5.25021e-06
 Reference value :  5.25021e-06
 Reference value :  5.25022e-06
 Reference value :  5.25025e-06
 Reference value :  5.25030e-06
 Reference value :  5.25039e-06
 Reference value :  5.25059e-06
 Reference value :  5.25094e-06
 Reference value :  5.25136e-06
 Reference value :  5.25188e-06
 Reference value :  5.25249e-06
 Reference value :  5.25326e-06
 Reference value :  5.25413e-06
 Reference value :  5.25529e-06
 Reference value :  5.25619e-06
 Reference value :  5.25714e-06
 Reference value :  5.25820e-06
 Reference value :  5.25978e-06
 Reference value :  5.26123e-06
 Reference value :  5.26375e-06
 Reference value :  5.26668e-06
 Reference value :  5.27211e-06
 Reference value :  5.28295e-06
 Reference value :  5.30172e-06
 Reference value :  5.33925e-06
 Reference value :  5.41301e-06
 Reference value :  5.50000e-06
 Reference value :  5.50001e-06
 Reference value :  5.50003e-06
 Reference value :  5.50007e-06
 Reference value :  5.50010e-06
 Reference value :  5.50010e-06
 Reference value :  5.50011e-06
 Reference value :  5.50013e-06
 Reference value :  5.50016e-06
 Reference value :  5.50023e-06
 Reference value :  5.50036e-06
 Reference value :  5.50053e-06
 Reference value :  5.50087e-06
 Reference value :  5.50145e-06
 Reference value :  5.50221e-06
 Reference value :  5.50284e-06
 Reference value :  5.50350e-06
 Reference value :  5.50419e-06
 Reference value :  5.50515e-06
 Reference value :  5.50612e-06
 Reference value :  5.50705e-06
 Reference value :  5.50854e-06
 Reference value :  5.50990e-06
 Reference value :  5.51119e-06
 Reference value :  5.51257e-06
 Reference value :  5.51386e-06
 Reference value :  5.51535e-06
 Reference value :  5.51687e-06
 Reference value :  5.51858e-06
 Reference value :  5.52199e-06
 Reference value :  5.52882e-06
 Reference value :  5.54048e-06
 Reference value :  5.56381e-06
 Reference value :  5.60785e-06
 Reference value :  5.69592e-06
 Reference value :  5.75010e-06
 Reference value :  5.75011e-06
 Reference value :  5.75013e-06
 Reference value :  5.75017e-06
 Reference value :  5.75020e-06
 Reference value :  5.75020e-06
 Reference value :  5.75020e-06
 Reference value :  5.75021e-06
 Reference value :  5.75021e-06
 Reference value :  5.75022e-06
 Reference value :  5.75025e-06
 Reference value :  5.75030e-06
 Reference value :  5.75039e-06
 Reference value :  5.75059e-06
 Reference value :  5.75094e-06
 Reference value :  5.75136e-06
 Reference value :  5.75188e-06
 Reference value :  5.75249e-06
 Reference value :  5.75326e-06
 Reference value :  5.75413e-06
 Reference value :  5.75531e-06
 Reference value :  5.75623e-06
 Reference value :  5.75720e-06
 Reference value :  5.75823e-06
 Reference value :  5.75934e-06
 Reference value :  5.76057e-06
 Reference value :  5.76185e-06
 Reference value :  5.76325e-06
 Reference value :  5.76538e-06
 Reference value :  5.76770e-06
 Reference value :  5.77133e-06
 Reference value :  5.77705e-06
 Reference value :  5.78848e-06
 Reference value :  5.81136e-06
 Reference value :  5.85692e-06
 Reference value :  5.94803e-06
 Reference value :  6.00000e-06
 Reference value :  6.00001e-06
 Reference value :  6.00003e-06
 Reference value :  6.00007e-06
 Reference value :  6.00010e-06
 Reference value :  6.00010e-06
 Reference value :  6.00011e-06
 Reference value :  6.00013e-06
 Reference value :  6.00016e-06
 Reference value :  6.00023e-06
 Reference value :  6.00036e-06
 Reference value :  6.00053e-06
 Reference value :  6.00087e-06
 Reference value :  6.00144e-06
 Reference value :  6.00221e-06
 Reference value :  6.00288e-06
 Reference value :  6.00356e-06
 Reference value :  6.00427e-06
 Reference value :  6.00514e-06
 Reference value :  6.00590e-06
 Reference value :  6.00673e-06
 Reference value :  6.00781e-06
 Reference value :  6.00879e-06
 Reference value :  6.00970e-06
 Reference value :  6.01079e-06
 Reference value :  6.01200e-06
 Reference value :  6.01389e-06
 Reference value :  6.01525e-06
 Reference value :  6.01673e-06
 Reference value :  6.01812e-06
 Reference value :  6.01974e-06
 Reference value :  6.02117e-06
 Reference value :  6.02235e-06
 Reference value :  6.02360e-06
 Reference value :  6.02484e-06
 Reference value :  6.02616e-06
 Reference value :  6.02787e-06
 Reference value :  6.02949e-06
 Reference value :  6.03221e-06
 Reference value :  6.03478e-06
 Reference value :  6.03993e-06
 Reference value :  6.04555e-06
 Reference value :  6.05073e-06
 Reference value :  6.05761e-06
 Reference value :  6.06673e-06
 Reference value :  6.08073e-06
 Reference value :  6.10268e-06
 Reference value :  6.14657e-06
 Reference value :  6.22480e-06
 Reference value :  6.25010e-06
 Reference value :  6.25011e-06
 Reference value :  6.25013e-06
 Reference value :  6.25017e-06
 Reference value :  6.25020e-06
 Reference value :  6.25020e-06
 Reference value :  6.25020e-06
 Reference value :  6.25021e-06
 Reference value :  6.25021e-06
 Reference value :  6.25022e-06
 Reference value :  6.25025e-06
 Reference value :  6.25030e-06
 Reference value :  6.25039e-06
 Reference value :  6.25059e-06
 Reference value :  6.25094e-06
 Reference value :  6.25136e-06
 Reference value :  6.25188e-06
 Reference value :  6.25249e-06
 Reference value :  6.25326e-06
 Reference value :  6.25413e-06
 Reference value :  6.25529e-06
 Reference value :  6.25619e-06
 Reference value :  6.25715e-06
 Reference value :  6.25820e-06
 Reference value :  6.25978e-06
 Reference value :  6.26125e-06
 Reference value :  6.26376e-06
 Reference value :  6.26670e-06
 Reference value :  6.27213e-06
 Reference value :  6.28299e-06
 Reference value :  6.30172e-06
 Reference value :  6.33916e-06
 Reference value :  6.41271e-06
 Reference value :  6.50000e-06
 Reference value :  6.50001e-06
 Reference value :  6.50003e-06
 Reference value :  6.50007e-06
 Reference value :  6.50010e-06
 Reference value :  6.50010e-06
 Reference value :  6.50011e-06
 Reference value :  6.50013e-06
 Reference value :  6.50016e-06
 Reference value :  6.50023e-06
 Reference value :  6.50036e-06
 Reference value :  6.50053e-06
 Reference value :  6.50087e-06
 Reference value :  6.50145e-06
 Reference value :  6.50221e-06
 Reference value :  6.50284e-06
 Reference value :  6.50350e-06
 Reference value :  6.50419e-06
 Reference value :  6.50515e-06
 Reference value :  6.50611e-06
 Reference value :  6.50705e-06
 Reference value :  6.50853e-06
 Reference value :  6.50989e-06
 Reference value :  6.51126e-06
 Reference value :  6.51281e-06
 Reference value :  6.51420e-06
 Reference value :  6.51571e-06
 Reference value :  6.51723e-06
 Reference value :  6.51901e-06
 Reference value :  6.52256e-06
 Reference value :  6.52843e-06
 Reference value :  6.54016e-06
 Reference value :  6.56231e-06
 Reference value :  6.60336e-06
 Reference value :  6.68546e-06
 Reference value :  6.75010e-06
 Reference value :  6.75011e-06
 Reference value :  6.75013e-06
 Reference value :  6.75017e-06
 Reference value :  6.75020e-06
 Reference value :  6.75020e-06
 Reference value :  6.75020e-06
 Reference value :  6.75021e-06
 Reference value :  6.75021e-06
 Reference value :  6.75022e-06
 Reference value :  6.75025e-06
 Reference value :  6.75030e-06
 Reference value :  6.75039e-06
 Reference value :  6.75059e-06
 Reference value :  6.75094e-06
 Reference value :  6.75136e-06
 Reference value :  6.75188e-06
 Reference value :  6.75249e-06
 Reference value :  6.75326e-06
 Reference value :  6.75413e-06
 Reference value :  6.75531e-06
 Reference value :  6.75623e-06
 Reference value :  6.75720e-06
 Reference value :  6.75823e-06
 Reference value :  6.75934e-06
 Reference value :  6.76058e-06
 Reference value :  6.76186e-06
 Reference value :  6.76326e-06
 Reference value :  6.76539e-06
 Reference value :  6.76771e-06
 Reference value :  6.77136e-06
 Reference value :  6.77711e-06
 Reference value :  6.78862e-06
 Reference value :  6.81162e-06
 Reference value :  6.85652e-06
 Reference value :  6.94631e-06
 Reference value :  7.00000e-06
 Reference value :  7.00001e-06
 Reference value :  7.00003e-06
 Reference value :  7.00007e-06
 Reference value :  7.00010e-06
 Reference value :  7.00010e-06
 Reference value :  7.00011e-06
 Reference value :  7.00013e-06
 Reference value :  7.00016e-06
 Reference value :  7.00023e-06
 Reference value :  7.00036e-06
 Reference value :  7.00053e-06
 Reference value :  7.00087e-06
 Reference value :  7.00144e-06
 Reference value :  7.00221e-06
 Reference value :  7.00288e-06
 Reference value :  7.00356e-06
 Reference value :  7.00427e-06
 Reference value :  7.00513e-06
 Reference value :  7.00590e-06
 Reference value :  7.00672e-06
 Reference value :  7.00780e-06
 Reference value :  7.00878e-06
 Reference value :  7.00974e-06
 Reference value :  7.01079e-06
 Reference value :  7.01204e-06
 Reference value :  7.01385e-06
 Reference value :  7.01516e-06
 Reference value :  7.01664e-06
 Reference value :  7.01808e-06
 Reference value :  7.01975e-06
 Reference value :  7.02134e-06
 Reference value :  7.02246e-06
 Reference value :  7.02360e-06
 Reference value :  7.02478e-06
 Reference value :  7.02609e-06
 Reference value :  7.02750e-06
 Reference value :  7.02894e-06
 Reference value :  7.03098e-06
 Reference value :  7.03323e-06
 Reference value :  7.03747e-06
 Reference value :  7.04177e-06
 Reference value :  7.04911e-06
 Reference value :  7.05744e-06
 Reference value :  7.07411e-06
 Reference value :  7.09647e-06
 Reference value :  7.14087e-06
 Reference value :  7.22967e-06
 Reference value :  7.25010e-06
 Reference value :  7.25011e-06
 Reference value :  7.25013e-06
 Reference value :  7.25017e-06
 Reference value :  7.25020e-06
 Reference value :  7.25020e-06
 Reference value :  7.25020e-06
 Reference value :  7.25021e-06
 Reference value :  7.25021e-06
 Reference value :  7.25022e-06
 Reference value :  7.25025e-06
 Reference value :  7.25029e-06
 Reference value :  7.25039e-06
 Reference value :  7.25058e-06
 Reference value :  7.25092e-06
 Reference value :  7.25135e-06
 Reference value :  7.25187e-06
 Reference value :  7.25248e-06
 Reference value :  7.25324e-06
 Reference value :  7.25412e-06
 Reference value :  7.25527e-06
 Reference value :  7.25618e-06
 Reference value :  7.25713e-06
 Reference value :  7.25820e-06
 Reference value :  7.25977e-06
 Reference value :  7.26126e-06
 Reference value :  7.26376e-06
 Reference value :  7.26671e-06
 Reference value :  7.27211e-06
 Reference value :  7.28289e-06
 Reference value :  7.30164e-06
 Reference value :  7.33914e-06
 Reference value :  7.41094e-06
 Reference value :  7.50000e-06
 Reference value :  7.50001e-06
 Reference value :  7.50003e-06
 Reference value :  7.50007e-06
 Reference value :  7.50010e-06
 Reference value :  7.50010e-06
 Reference value :  7.50011e-06
 Reference value :  7.50013e-06
 Reference value :  7.50016e-06
 Reference value :  7.50023e-06
 Reference value :  7.50036e-06
 Reference value :  7.50053e-06
 Reference value :  7.50087e-06
 Reference value :  7.50150e-06
 Reference value :  7.50218e-06
 Reference value :  7.50276e-06
 Reference value :  7.50340e-06
 Reference value :  7.50407e-06
 Reference value :  7.50501e-06
 Reference value :  7.50592e-06
 Reference value :  7.50687e-06
 Reference value :  7.50815e-06
 Reference value :  7.50958e-06
 Reference value :  7.51111e-06
 Reference value :  7.51250e-06
 Reference value :  7.51394e-06
 Reference value :  7.51559e-06
 Reference value :  7.51726e-06
 Reference value :  7.51932e-06
 Reference value :  7.52257e-06
 Reference value :  7.52790e-06
 Reference value :  7.53781e-06
 Reference value :  7.55494e-06
 Reference value :  7.58678e-06
 Reference value :  7.64557e-06
 Reference value :  7.75010e-06
 Reference value :  7.75011e-06
 Reference value :  7.75013e-06
 Reference value :  7.75017e-06
 Reference value :  7.75020e-06
 Reference value :  7.75020e-06
 Reference value :  7.75020e-06
 Reference value :  7.75021e-06
 Reference value :  7.75021e-06
 Reference value :  7.75022e-06
 Reference value :  7.75025e-06
 Reference value :  7.75030e-06
 Reference value :  7.75039e-06
 Reference value :  7.75059e-06
 Reference value :  7.75094e-06
 Reference value :  7.75136e-06
 Reference value :  7.75188e-06
 Reference value :  7.75249e-06
 Reference value :  7.75326e-06
 Reference value :  7.75414e-06
 Reference value :  7.75531e-06
 Reference value :  7.75627e-06
 Reference value :  7.75726e-06
 Reference value :  7.75828e-06
 Reference value :  7.75941e-06
 Reference value :  7.76066e-06
 Reference value :  7.76192e-06
 Reference value :  7.76333e-06
 Reference value :  7.76574e-06
 Reference value :  7.76792e-06
 Reference value :  7.77197e-06
 Reference value :  7.77810e-06
 Reference value :  7.79035e-06
 Reference value :  7.81165e-06
 Reference value :  7.85036e-06
 Reference value :  7.92258e-06
 Reference value :  8.00000e-06
 Reference value :  8.00001e-06
 Reference value :  8.00003e-06
 Reference value :  8.00007e-06
 Reference value :  8.00010e-06
 Reference value :  8.00010e-06
 Reference value :  8.00011e-06
 Reference value :  8.00013e-06
 Reference value :  8.00016e-06
 Reference value :  8.00023e-06
 Reference value :  8.00036e-06
 Reference value :  8.00053e-06
 Reference value :  8.00087e-06
 Reference value :  8.00149e-06
 Reference value :  8.00218e-06
 Reference value :  8.00280e-06
 Reference value :  8.00345e-06
 Reference value :  8.00413e-06
 Reference value :  8.00497e-06
 Reference value :  8.00584e-06
 Reference value :  8.00675e-06
 Reference value :  8.00766e-06
 Reference value :  8.00863e-06
 Reference value :  8.00957e-06
 Reference value :  8.01054e-06
 Reference value :  8.01184e-06
 Reference value :  8.01344e-06
 Reference value :  8.01499e-06
 Reference value :  8.01666e-06
 Reference value :  8.01865e-06
 Reference value :  8.02047e-06
 Reference value :  8.02265e-06
 Reference value :  8.02420e-06
 Reference value :  8.02585e-06
 Reference value :  8.02762e-06
 Reference value :  8.02988e-06
 Reference value :  8.03238e-06
 Reference value :  8.03627e-06
 Reference value :  8.04405e-06
 Reference value :  8.05944e-06
 Reference value :  8.08047e-06
 Reference value :  8.11851e-06
 Reference value :  8.18333e-06
 Reference value :  8.25010e-06
 Reference value :  8.25011e-06
 Reference value :  8.25013e-06
 Reference value :  8.25017e-06
 Reference value :  8.25020e-06
 Reference value :  8.25020e-06
 Reference value :  8.25020e-06
 Reference value :  8.25021e-06
 Reference value :  8.25021e-06
 Reference value :  8.25022e-06
 Reference value :  8.25025e-06
 Reference value :  8.25030e-06
 Reference value :  8.25039e-06
 Reference value :  8.25059e-06
 Reference value :  8.25098e-06
 Reference value :  8.25139e-06
 Reference value :  8.25189e-06
 Reference value :  8.25250e-06
 Reference value :  8.25330e-06
 Reference value :  8.25418e-06
 Reference value :  8.25526e-06
 Reference value :  8.25645e-06
 Reference value :  8.25784e-06
 Reference value :  8.25942e-06
 Reference value :  8.26126e-06
 Reference value :  8.26401e-06
 Reference value :  8.26675e-06
 Reference value :  8.27191e-06
 Reference value :  8.28222e-06
 Reference value :  8.29891e-06
 Reference value :  8.33221e-06
 Reference value :  8.39053e-06
 Reference value :  8.50000e-06
 Reference value :  8.50001e-06
 Reference value :  8.50003e-06
 Reference value :  8.50007e-06
 Reference value :  8.50010e-06
 Reference value :  8.50010e-06
 Reference value :  8.50011e-06
 Reference value :  8.50013e-06
 Reference value :  8.50016e-06
 Reference value :  8.50023e-06
 Reference value :  8.50036e-06
 Reference value :  8.50063e-06
 Reference value :  8.50109e-06
 Reference value :  8.50179e-06
 Reference value :  8.50270e-06
 Reference value :  8.50336e-06
 Reference value :  8.50415e-06
 Reference value :  8.50499e-06
 Reference value :  8.50589e-06
 Reference value :  8.50698e-06
 Reference value :  8.50836e-06
 Reference value :  8.51007e-06
 Reference value :  8.51231e-06
 Reference value :  8.51410e-06
 Reference value :  8.51597e-06
 Reference value :  8.51836e-06
 Reference value :  8.52086e-06
 Reference value :  8.52366e-06
 Reference value :  8.52790e-06
 Reference value :  8.53302e-06
 Reference value :  8.53672e-06
 Reference value :  8.53975e-06
 Reference value :  8.54261e-06
 Reference value :  8.54541e-06
 Reference value :  8.54765e-06
 Reference value :  8.54987e-06
 Reference value :  8.55193e-06
 Reference value :  8.55418e-06
 Reference value :  8.55710e-06
 Reference value :  8.56067e-06
 Reference value :  8.56598e-06
 Reference value :  8.57215e-06
 Reference value :  8.58008e-06
 Reference value :  8.58525e-06
 Reference value :  8.59082e-06
 Reference value :  8.59595e-06
 Reference value :  8.60189e-06
 Reference value :  8.60800e-06
 Reference value :  8.61530e-06
 Reference value :  8.62299e-06
 Reference value :  8.63837e-06
 Reference value :  8.65630e-06
 Reference value :  8.68046e-06
 Reference value :  8.70734e-06
 Reference value :  8.74554e-06
 Reference value :  8.75010e-06
 Reference value :  8.75011e-06
 Reference value :  8.75013e-06
 Reference value :  8.75017e-06
 Reference value :  8.75020e-06
 Reference value :  8.75020e-06
 Reference value :  8.75020e-06
 Reference value :  8.75021e-06
 Reference value :  8.75021e-06
 Reference value :  8.75022e-06
 Reference value :  8.75025e-06
 Reference value :  8.75030e-06
 Reference value :  8.75039e-06
 Reference value :  8.75059e-06
 Reference value :  8.75098e-06
 Reference value :  8.75139e-06
 Reference value :  8.75191e-06
 Reference value :  8.75252e-06
 Reference value :  8.75332e-06
 Reference value :  8.75421e-06
 Reference value :  8.75519e-06
 Reference value :  8.75606e-06
 Reference value :  8.75699e-06
 Reference value :  8.75799e-06
 Reference value :  8.75934e-06
 Reference value :  8.76076e-06
 Reference value :  8.76319e-06
 Reference value :  8.76580e-06
 Reference value :  8.77044e-06
 Reference value :  8.77972e-06
 Reference value :  8.79682e-06
 Reference value :  8.83039e-06
 Reference value :  8.89754e-06
 Reference value :  9.00000e-06
 Reference value :  9.00001e-06
 Reference value :  9.00003e-06
 Reference value :  9.00007e-06
 Reference value :  9.00010e-06
 Reference value :  9.00010e-06
 Reference value :  9.00011e-06
 Reference value :  9.00013e-06
 Reference value :  9.00016e-06
 Reference value :  9.00023e-06
 Reference value :  9.00036e-06
 Reference value :  9.00054e-06
 Reference value :  9.00089e-06
 Reference value :  9.00151e-06
 Reference value :  9.00220e-06
 Reference value :  9.00278e-06
 Reference value :  9.00350e-06
 Reference value :  9.00418e-06
 Reference value :  9.00517e-06
 Reference value :  9.00614e-06
 Reference value :  9.00710e-06
 Reference value :  9.00860e-06
 Reference value :  9.00995e-06
 Reference value :  9.01185e-06
 Reference value :  9.01411e-06
 Reference value :  9.01599e-06
 Reference value :  9.01796e-06
 Reference value :  9.01993e-06
 Reference value :  9.02217e-06
 Reference value :  9.02469e-06
 Reference value :  9.02737e-06
 Reference value :  9.03229e-06
 Reference value :  9.04042e-06
 Reference value :  9.05018e-06
 Reference value :  9.06971e-06
 Reference value :  9.10877e-06
 Reference value :  9.17728e-06
 Reference value :  9.25010e-06
 Reference value :  9.25011e-06
 Reference value :  9.25013e-06
 Reference value :  9.25017e-06
 Reference value :  9.25020e-06
 Reference value :  9.25020e-06
 Reference value :  9.25020e-06
 Reference value :  9.25021e-06
 Reference value :  9.25021e-06
 Reference value :  9.25022e-06
 Reference value :  9.25025e-06
 Reference value :  9.25030e-06
 Reference value :  9.25039e-06
 Reference value :  9.25059e-06
 Reference value :  9.25098e-06
 Reference value :  9.25139e-06
 Reference value :  9.25191e-06
 Reference value :  9.25252e-06
 Reference value :  9.25332e-06
 Reference value :  9.25422e-06
 Reference value :  9.25540e-06
 Reference value :  9.25649e-06
 Reference value :  9.25750e-06
 Reference value :  9.25857e-06
 Reference value :  9.25977e-06
 Reference value :  9.26106e-06
 Reference value :  9.26234e-06
 Reference value :  9.26378e-06
 Reference value :  9.26604e-06
 Reference value :  9.26831e-06
 Reference value :  9.27229e-06
 Reference value :  9.27932e-06
 Reference value :  9.28951e-06
 Reference value :  9.30841e-06
 Reference value :  9.33805e-06
 Reference value :  9.38844e-06
 Reference value :  9.47786e-06
 Reference value :  9.50000e-06
 Reference value :  9.50001e-06
 Reference value :  9.50003e-06
 Reference value :  9.50007e-06
 Reference value :  9.50010e-06
 Reference value :  9.50010e-06
 Reference value :  9.50011e-06
 Reference value :  9.50013e-06
 Reference value :  9.50016e-06
 Reference value :  9.50023e-06
 Reference value :  9.50036e-06
 Reference value :  9.50054e-06
 Reference value :  9.50089e-06
 Reference value :  9.50151e-06
 Reference value :  9.50220e-06
 Reference value :  9.50281e-06
 Reference value :  9.50346e-06
 Reference value :  9.50414e-06
 Reference value :  9.50499e-06
 Reference value :  9.50589e-06
 Reference value :  9.50676e-06
 Reference value :  9.50765e-06
 Reference value :  9.50863e-06
 Reference value :  9.50966e-06
 Reference value :  9.51059e-06
 Reference value :  9.51205e-06
 Reference value :  9.51354e-06
 Reference value :  9.51595e-06
 Reference value :  9.51768e-06
 Reference value :  9.51951e-06
 Reference value :  9.52119e-06
 Reference value :  9.52266e-06
 Reference value :  9.52413e-06
 Reference value :  9.52572e-06
 Reference value :  9.52718e-06
 Reference value :  9.52898e-06
 Reference value :  9.53113e-06
 Reference value :  9.53349e-06
 Reference value :  9.53780e-06
 Reference value :  9.54388e-06
 Reference value :  9.55438e-06
 Reference value :  9.57244e-06
 Reference value :  9.60184e-06
 Reference value :  9.65391e-06
 Reference value :  9.72772e-06
 Reference value :  9.75010e-06
 Reference value :  9.75011e-06
 Reference value :  9.75013e-06
 Reference value :  9.75017e-06
 Reference value :  9.75020e-06
 Reference value :  9.75020e-06
 Reference value :  9.75020e-06
 Reference value :  9.75021e-06
 Reference value :  9.75021e-06
 Reference value :  9.75022e-06
 Reference value :  9.75025e-06
 Reference value :  9.75030e-06
 Reference value :  9.75039e-06
 Reference value :  9.75059e-06
 Reference value :  9.75094e-06
 Reference value :  9.75136e-06
 Reference value :  9.75188e-06
 Reference value :  9.75249e-06
 Reference value :  9.75326e-06
 Reference value :  9.75414e-06
 Reference value :  9.75530e-06
 Reference value :  9.75619e-06
 Reference value :  9.75715e-06
 Reference value :  9.75820e-06
 Reference value :  9.75978e-06
 Reference value :  9.76124e-06
 Reference value :  9.76375e-06
 Reference value :  9.76670e-06
 Reference value :  9.77213e-06
 Reference value :  9.78300e-06
 Reference value :  9.80165e-06
 Reference value :  9.83897e-06
 Reference value :  9.91247e-06
 Reference value :  9.98907e-06
 Reference value :  1.00000e-05
 Reference value :  1.00000e-05
 Reference value :  1.00000e-05
 Reference value :  1.00001e-05
 Reference value :  1.00001e-05
 Reference value :  1.00001e-05
 Reference value :  1.00001e-05
 Reference value :  1.00001e-05
 Reference value :  1.00002e-05
 Reference value :  1.00002e-05
 Reference value :  1.00004e-05
 Reference value :  1.00005e-05
 Reference value :  1.00009e-05
 Reference value :  1.00014e-05
 Reference value :  1.00022e-05
 Reference value :  1.00028e-05
 Reference value :  1.00035e-05
 Reference value :  1.00042e-05
 Reference value :  1.00052e-05
 Reference value :  1.00061e-05
 Reference value :  1.00071e-05
 Reference value :  1.00086e-05
 Reference value :  1.00099e-05
 Reference value :  1.00113e-05
 Reference value :  1.00129e-05
 Reference value :  1.00146e-05
 Reference value :  1.00163e-05
 Reference value :  1.00182e-05
 Reference value :  1.00205e-05
 Reference value :  1.00238e-05
 Reference value :  1.00293e-05
 Reference value :  1.00385e-05
 Reference value :  1.00553e-05
 Reference value :  1.00862e-05
 Reference value :  1.01436e-05
 Reference value :  1.02501e-05
 Reference value :  1.02501e-05
 Reference value :  1.02501e-05
 Reference value :  1.02502e-05
 Reference value :  1.02502e-05
 Reference value :  1.02502e-05
 Reference value :  1.02502e-05
 Reference value :  1.02502e-05
 Reference value :  1.02502e-05
 Reference value :  1.02502e-05
 Reference value :  1.02502e-05
 Reference value :  1.02503e-05
 Reference value :  1.02504e-05
 Reference value :  1.02506e-05
 Reference value :  1.02509e-05
 Reference value :  1.02514e-05
 Reference value :  1.02519e-05
 Reference value :  1.02525e-05
 Reference value :  1.02533e-05
 Reference value :  1.02541e-05
 Reference value :  1.02553e-05
 Reference value :  1.02562e-05
 Reference value :  1.02572e-05
 Reference value :  1.02582e-05
 Reference value :  1.02593e-05
 Reference value :  1.02606e-05
 Reference value :  1.02619e-05
 Reference value :  1.02633e-05
 Reference value :  1.02654e-05
 Reference value :  1.02677e-05
 Reference value :  1.02713e-05
 Reference value :  1.02770e-05
 Reference value :  1.02884e-05
 Reference value :  1.03112e-05
 Reference value :  1.03567e-05
 Reference value :  1.04479e-05
 Reference value :  1.05000e-05
 Reference value :  1.05000e-05
 Reference value :  1.05000e-05
 Reference value :  1.05001e-05
 Reference value :  1.05001e-05
 Reference value :  1.05001e-05
 Reference value :  1.05001e-05
 Reference value :  1.05001e-05
 Reference value :  1.05002e-05
 Reference value :  1.05002e-05
 Reference value :  1.05004e-05
 Reference value :  1.05005e-05
 Reference value :  1.05009e-05
 Reference value :  1.05014e-05
 Reference value :  1.05022e-05
 Reference value :  1.05029e-05
 Reference value :  1.05036e-05
 Reference value :  1.05043e-05
 Reference value :  1.05051e-05
 Reference value :  1.05059e-05
 Reference value :  1.05067e-05
 Reference value :  1.05078e-05
 Reference value :  1.05088e-05
 Reference value :  1.05097e-05
 Reference value :  1.05108e-05
 Reference value :  1.05121e-05
 Reference value :  1.05137e-05
 Reference value :  1.05158e-05
 Reference value :  1.05174e-05
 Reference value :  1.05191e-05
 Reference value :  1.05208e-05
 Reference value :  1.05222e-05
 Reference value :  1.05235e-05
 Reference value :  1.05249e-05
 Reference value :  1.05263e-05
 Reference value :  1.05280e-05
 Reference value :  1.05297e-05
 Reference value :  1.05322e-05
 Reference value :  1.05348e-05
 Reference value :  1.05401e-05
 Reference value :  1.05486e-05
 Reference value :  1.05621e-05
 Reference value :  1.05843e-05
 Reference value :  1.06222e-05
 Reference value :  1.06748e-05
 Reference value :  1.07299e-05
 Reference value :  1.07501e-05
 Reference value :  1.07501e-05
 Reference value :  1.07501e-05
 Reference value :  1.07502e-05
 Reference value :  1.07502e-05
 Reference value :  1.07502e-05
 Reference value :  1.07502e-05
 Reference value :  1.07502e-05
 Reference value :  1.07502e-05
 Reference value :  1.07502e-05
 Reference value :  1.07502e-05
 Reference value :  1.07503e-05
 Reference value :  1.07504e-05
 Reference value :  1.07506e-05
 Reference value :  1.07509e-05
 Reference value :  1.07513e-05
 Reference value :  1.07519e-05
 Reference value :  1.07525e-05
 Reference value :  1.07532e-05
 Reference value :  1.07541e-05
 Reference value :  1.07553e-05
 Reference value :  1.07562e-05
 Reference value :  1.07571e-05
 Reference value :  1.07582e-05
 Reference value :  1.07597e-05
 Reference value :  1.07612e-05
 Reference value :  1.07637e-05
 Reference value :  1.07666e-05
 Reference value :  1.07719e-05
 Reference value :  1.07826e-05
 Reference value :  1.08013e-05
 Reference value :  1.08387e-05
 Reference value :  1.09032e-05
 Reference value :  1.09710e-05
 Reference value :  1.10000e-05
 Reference value :  1.10000e-05
 Reference value :  1.10000e-05
 Reference value :  1.10001e-05
 Reference value :  1.10001e-05
 Reference value :  1.10001e-05
 Reference value :  1.10001e-05
 Reference value :  1.10001e-05
 Reference value :  1.10002e-05
 Reference value :  1.10002e-05
 Reference value :  1.10004e-05
 Reference value :  1.10005e-05
 Reference value :  1.10009e-05
 Reference value :  1.10014e-05
 Reference value :  1.10022e-05
 Reference value :  1.10028e-05
 Reference value :  1.10035e-05
 Reference value :  1.10042e-05
 Reference value :  1.10052e-05
 Reference value :  1.10061e-05
 Reference value :  1.10071e-05
 Reference value :  1.10086e-05
 Reference value :  1.10099e-05
 Reference value :  1.10113e-05
 Reference value :  1.10128e-05
 Reference value :  1.10146e-05
 Reference value :  1.10163e-05
 Reference value :  1.10182e-05
 Reference value :  1.10204e-05
 Reference value :  1.10243e-05
 Reference value :  1.10304e-05
 Reference value :  1.10415e-05
 Reference value :  1.10630e-05
 Reference value :  1.11020e-05
 Reference value :  1.11801e-05
 Reference value :  1.12501e-05
 Reference value :  1.12501e-05
 Reference value :  1.12501e-05
 Reference value :  1.12502e-05
 Reference value :  1.12502e-05
 Reference value :  1.12502e-05
 Reference value :  1.12502e-05
 Reference value :  1.12502e-05
 Reference value :  1.12502e-05
 Reference value :  1.12502e-05
 Reference value :  1.12502e-05
 Reference value :  1.12503e-05
 Reference value :  1.12504e-05
 Reference value :  1.12506e-05
 Reference value :  1.12509e-05
 Reference value :  1.12514e-05
 Reference value :  1.12519e-05
 Reference value :  1.12525e-05
 Reference value :  1.12533e-05
 Reference value :  1.12541e-05
 Reference value :  1.12553e-05
 Reference value :  1.12562e-05
 Reference value :  1.12572e-05
 Reference value :  1.12582e-05
 Reference value :  1.12593e-05
 Reference value :  1.12606e-05
 Reference value :  1.12618e-05
 Reference value :  1.12632e-05
 Reference value :  1.12654e-05
 Reference value :  1.12677e-05
 Reference value :  1.12713e-05
 Reference value :  1.12770e-05
 Reference value :  1.12883e-05
 Reference value :  1.13110e-05
 Reference value :  1.13565e-05
 Reference value :  1.14473e-05
 Reference value :  1.15000e-05
 Reference value :  1.15000e-05
 Reference value :  1.15000e-05
 Reference value :  1.15001e-05
 Reference value :  1.15001e-05
 Reference value :  1.15001e-05
 Reference value :  1.15001e-05
 Reference value :  1.15001e-05
 Reference value :  1.15002e-05
 Reference value :  1.15002e-05
 Reference value :  1.15004e-05
 Reference value :  1.15005e-05
 Reference value :  1.15009e-05
 Reference value :  1.15014e-05
 Reference value :  1.15022e-05
 Reference value :  1.15029e-05
 Reference value :  1.15036e-05
 Reference value :  1.15043e-05
 Reference value :  1.15051e-05
 Reference value :  1.15059e-05
 Reference value :  1.15067e-05
 Reference value :  1.15078e-05
 Reference value :  1.15088e-05
 Reference value :  1.15097e-05
 Reference value :  1.15108e-05
 Reference value :  1.15121e-05
 Reference value :  1.15137e-05
 Reference value :  1.15152e-05
 Reference value :  1.15169e-05
 Reference value :  1.15185e-05
 Reference value :  1.15202e-05
 Reference value :  1.15215e-05
 Reference value :  1.15226e-05
 Reference value :  1.15241e-05
 Reference value :  1.15256e-05
 Reference value :  1.15269e-05
 Reference value :  1.15287e-05
 Reference value :  1.15308e-05
 Reference value :  1.15332e-05
 Reference value :  1.15375e-05
 Reference value :  1.15439e-05
 Reference value :  1.15548e-05
 Reference value :  1.15686e-05
 Reference value :  1.15840e-05
 Reference value :  1.15998e-05
 Reference value :  1.16110e-05
 Reference value :  1.16216e-05
 Reference value :  1.16313e-05
 Reference value :  1.16401e-05
 Reference value :  1.16576e-05
 Reference value :  1.16763e-05
 Reference value :  1.17050e-05
 Reference value :  1.17378e-05
 Reference value :  1.17501e-05
 Reference value :  1.17501e-05
 Reference value :  1.17501e-05
 Reference value :  1.17502e-05
 Reference value :  1.17502e-05
 Reference value :  1.17502e-05
 Reference value :  1.17502e-05
 Reference value :  1.17502e-05
 Reference value :  1.17502e-05
 Reference value :  1.17502e-05
 Reference value :  1.17502e-05
 Reference value :  1.17503e-05
 Reference value :  1.17504e-05
 Reference value :  1.17506e-05
 Reference value :  1.17509e-05
 Reference value :  1.17514e-05
 Reference value :  1.17519e-05
 Reference value :  1.17525e-05
 Reference value :  1.17533e-05
 Reference value :  1.17541e-05
 Reference value :  1.17553e-05
 Reference value :  1.17562e-05
 Reference value :  1.17572e-05
 Reference value :  1.17583e-05
 Reference value :  1.17598e-05
 Reference value :  1.17613e-05
 Reference value :  1.17638e-05
 Reference value :  1.17668e-05
 Reference value :  1.17723e-05
 Reference value :  1.17834e-05
 Reference value :  1.18023e-05
 Reference value :  1.18402e-05
 Reference value :  1.19103e-05
 Reference value :  1.20000e-05
 Reference value :  1.20000e-05
 Reference value :  1.20000e-05
 Reference value :  1.20001e-05
 Reference value :  1.20001e-05
 Reference value :  1.20001e-05
 Reference value :  1.20001e-05
 Reference value :  1.20001e-05
 Reference value :  1.20002e-05
 Reference value :  1.20002e-05
 Reference value :  1.20004e-05
 Reference value :  1.20005e-05
 Reference value :  1.20009e-05
 Reference value :  1.20014e-05
 Reference value :  1.20022e-05
 Reference value :  1.20029e-05
 Reference value :  1.20036e-05
 Reference value :  1.20043e-05
 Reference value :  1.20052e-05
 Reference value :  1.20062e-05
 Reference value :  1.20072e-05
 Reference value :  1.20086e-05
 Reference value :  1.20100e-05
 Reference value :  1.20113e-05
 Reference value :  1.20126e-05
 Reference value :  1.20142e-05
 Reference value :  1.20158e-05
 Reference value :  1.20176e-05
 Reference value :  1.20196e-05
 Reference value :  1.20235e-05
 Reference value :  1.20294e-05
 Reference value :  1.20414e-05
 Reference value :  1.20638e-05
 Reference value :  1.21043e-05
 Reference value :  1.21836e-05
 Reference value :  1.22501e-05
 Reference value :  1.22501e-05
 Reference value :  1.22501e-05
 Reference value :  1.22502e-05
 Reference value :  1.22502e-05
 Reference value :  1.22502e-05
 Reference value :  1.22502e-05
 Reference value :  1.22502e-05
 Reference value :  1.22502e-05
 Reference value :  1.22502e-05
 Reference value :  1.22502e-05
 Reference value :  1.22503e-05
 Reference value :  1.22504e-05
 Reference value :  1.22506e-05
 Reference value :  1.22509e-05
 Reference value :  1.22514e-05
 Reference value :  1.22519e-05
 Reference value :  1.22525e-05
 Reference value :  1.22533e-05
 Reference value :  1.22541e-05
 Reference value :  1.22553e-05
 Reference value :  1.22562e-05
 Reference value :  1.22572e-05
 Reference value :  1.22582e-05
 Reference value :  1.22593e-05
 Reference value :  1.22606e-05
 Reference value :  1.22630e-05
 Reference value :  1.22657e-05
 Reference value :  1.22703e-05
 Reference value :  1.22788e-05
 Reference value :  1.22957e-05
 Reference value :  1.23288e-05
 Reference value :  1.23948e-05
 Reference value :  1.25000e-05
 Reference value :  1.25000e-05
 Reference value :  1.25000e-05
 Reference value :  1.25001e-05
 Reference value :  1.25001e-05
 Reference value :  1.25001e-05
 Reference value :  1.25001e-05
 Reference value :  1.25001e-05
 Reference value :  1.25002e-05
 Reference value :  1.25002e-05
 Reference value :  1.25004e-05
 Reference value :  1.25005e-05
 Reference value :  1.25009e-05
 Reference value :  1.25014e-05
 Reference value :  1.25022e-05
 Reference value :  1.25029e-05
 Reference value :  1.25036e-05
 Reference value :  1.25043e-05
 Reference value :  1.25052e-05
 Reference value :  1.25060e-05
 Reference value :  1.25069e-05
 Reference value :  1.25078e-05
 Reference value :  1.25089e-05
 Reference value :  1.25099e-05
 Reference value :  1.25110e-05
 Reference value :  1.25123e-05
 Reference value :  1.25141e-05
 Reference value :  1.25167e-05
 Reference value :  1.25187e-05
 Reference value :  1.25208e-05
 Reference value :  1.25222e-05
 Reference value :  1.25237e-05
 Reference value :  1.25252e-05
 Reference value :  1.25268e-05
 Reference value :  1.25285e-05
 Reference value :  1.25306e-05
 Reference value :  1.25329e-05
 Reference value :  1.25372e-05
 Reference value :  1.25437e-05
 Reference value :  1.25531e-05
 Reference value :  1.25600e-05
 Reference value :  1.25678e-05
 Reference value :  1.25752e-05
 Reference value :  1.25806e-05
 Reference value :  1.25867e-05
 Reference value :  1.25935e-05
 Reference value :  1.26007e-05
 Reference value :  1.26082e-05
 Reference value :  1.26161e-05
 Reference value :  1.26318e-05
 Reference value :  1.26524e-05
 Reference value :  1.26931e-05
 Reference value :  1.27501e-05
 Reference value :  1.27501e-05
 Reference value :  1.27501e-05
 Reference value :  1.27502e-05
 Reference value :  1.27502e-05
 Reference value :  1.27502e-05
 Reference value :  1.27502e-05
 Reference value :  1.27502e-05
 Reference value :  1.27502e-05
 Reference value :  1.27502e-05
 Reference value :  1.27502e-05
 Reference value :  1.27503e-05
 Reference value :  1.27504e-05
 Reference value :  1.27506e-05
 Reference value :  1.27509e-05
 Reference value :  1.27513e-05
 Reference value :  1.27519e-05
 Reference value :  1.27525e-05
 Reference value :  1.27532e-05
 Reference value :  1.27541e-05
 Reference value :  1.27552e-05
 Reference value :  1.27562e-05
 Reference value :  1.27571e-05
 Reference value :  1.27582e-05
 Reference value :  1.27598e-05
 Reference value :  1.27613e-05
 Reference value :  1.27638e-05
 Reference value :  1.27668e-05
 Reference value :  1.27721e-05
 Reference value :  1.27828e-05
 Reference value :  1.28014e-05
 Reference value :  1.28388e-05
 Reference value :  1.29092e-05
 Reference value :  1.30000e-05
 Reference value :  1.30000e-05
 Reference value :  1.30000e-05
 Reference value :  1.30001e-05
 Reference value :  1.30001e-05
 Reference value :  1.30001e-05
 Reference value :  1.30001e-05
 Reference value :  1.30001e-05
 Reference value :  1.30002e-05
 Reference value :  1.30002e-05
 Reference value :  1.30004e-05
 Reference value :  1.30005e-05
 Reference value :  1.30009e-05
 Reference value :  1.30014e-05
 Reference value :  1.30022e-05
 Reference value :  1.30028e-05
 Reference value :  1.30035e-05
 Reference value :  1.30042e-05
 Reference value :  1.30051e-05
 Reference value :  1.30061e-05
 Reference value :  1.30071e-05
 Reference value :  1.30085e-05
 Reference value :  1.30099e-05
 Reference value :  1.30112e-05
 Reference value :  1.30126e-05
 Reference value :  1.30139e-05
 Reference value :  1.30155e-05
 Reference value :  1.30171e-05
 Reference value :  1.30188e-05
 Reference value :  1.30223e-05
 Reference value :  1.30293e-05
 Reference value :  1.30411e-05
 Reference value :  1.30647e-05
 Reference value :  1.31091e-05
 Reference value :  1.31978e-05
 Reference value :  1.32501e-05
 Reference value :  1.32501e-05
 Reference value :  1.32501e-05
 Reference value :  1.32502e-05
 Reference value :  1.32502e-05
 Reference value :  1.32502e-05
 Reference value :  1.32502e-05
 Reference value :  1.32502e-05
 Reference value :  1.32502e-05
 Reference value :  1.32502e-05
 Reference value :  1.32502e-05
 Reference value :  1.32503e-05
 Reference value :  1.32504e-05
 Reference value :  1.32506e-05
 Reference value :  1.32509e-05
 Reference value :  1.32514e-05
 Reference value :  1.32519e-05
 Reference value :  1.32525e-05
 Reference value :  1.32533e-05
 Reference value :  1.32541e-05
 Reference value :  1.32553e-05
 Reference value :  1.32562e-05
 Reference value :  1.32572e-05
 Reference value :  1.32582e-05
 Reference value :  1.32593e-05
 Reference value :  1.32606e-05
 Reference value :  1.32618e-05
 Reference value :  1.32632e-05
 Reference value :  1.32654e-05
 Reference value :  1.32677e-05
 Reference value :  1.32713e-05
 Reference value :  1.32770e-05
 Reference value :  1.32884e-05
 Reference value :  1.33112e-05
 Reference value :  1.33564e-05
 Reference value :  1.34469e-05
 Reference value :  1.35000e-05
 Reference value :  1.35000e-05
 Reference value :  1.35000e-05
 Reference value :  1.35001e-05
 Reference value :  1.35001e-05
 Reference value :  1.35001e-05
 Reference value :  1.35001e-05
 Reference value :  1.35001e-05
 Reference value :  1.35002e-05
 Reference value :  1.35002e-05
 Reference value :  1.35004e-05
 Reference value :  1.35005e-05
 Reference value :  1.35009e-05
 Reference value :  1.35014e-05
 Reference value :  1.35022e-05
 Reference value :  1.35029e-05
 Reference value :  1.35036e-05
 Reference value :  1.35043e-05
 Reference value :  1.35052e-05
 Reference value :  1.35060e-05
 Reference value :  1.35068e-05
 Reference value :  1.35078e-05
 Reference value :  1.35087e-05
 Reference value :  1.35097e-05
 Reference value :  1.35107e-05
 Reference value :  1.35119e-05
 Reference value :  1.35136e-05
 Reference value :  1.35148e-05
 Reference value :  1.35162e-05
 Reference value :  1.35176e-05
 Reference value :  1.35192e-05
 Reference value :  1.35211e-05
 Reference value :  1.35226e-05
 Reference value :  1.35241e-05
 Reference value :  1.35256e-05
 Reference value :  1.35271e-05
 Reference value :  1.35288e-05
 Reference value :  1.35311e-05
 Reference value :  1.35334e-05
 Reference value :  1.35378e-05
 Reference value :  1.35441e-05
 Reference value :  1.35549e-05
 Reference value :  1.35651e-05
 Reference value :  1.35760e-05
 Reference value :  1.35859e-05
 Reference value :  1.36002e-05
 Reference value :  1.36188e-05
 Reference value :  1.36515e-05
 Reference value :  1.36897e-05
 Reference value :  1.37280e-05
 Reference value :  1.37501e-05
 Reference value :  1.37501e-05
 Reference value :  1.37501e-05
 Reference value :  1.37502e-05
 Reference value :  1.37502e-05
 Reference value :  1.37502e-05
 Reference value :  1.37502e-05
 Reference value :  1.37502e-05
 Reference value :  1.37502e-05
 Reference value :  1.37502e-05
 Reference value :  1.37502e-05
 Reference value :  1.37503e-05
 Reference value :  1.37504e-05
 Reference value :  1.37506e-05
 Reference value :  1.37509e-05
 Reference value :  1.37513e-05
 Reference value :  1.37519e-05
 Reference value :  1.37525e-05
 Reference value :  1.37532e-05
 Reference value :  1.37541e-05
 Reference value :  1.37553e-05
 Reference value :  1.37562e-05
 Reference value :  1.37571e-05
 Reference value :  1.37581e-05
 Reference value :  1.37596e-05
 Reference value :  1.37610e-05
 Reference value :  1.37635e-05
 Reference value :  1.37663e-05
 Reference value :  1.37712e-05
 Reference value :  1.37812e-05
 Reference value :  1.37995e-05
 Reference value :  1.38353e-05
 Reference value :  1.39059e-05
 Reference value :  1.40000e-05
 Reference value :  1.40000e-05
 Reference value :  1.40000e-05
 Reference value :  1.40001e-05
 Reference value :  1.40001e-05
 Reference value :  1.40001e-05
 Reference value :  1.40001e-05
 Reference value :  1.40001e-05
 Reference value :  1.40002e-05
 Reference value :  1.40002e-05
 Reference value :  1.40004e-05
 Reference value :  1.40005e-05
 Reference value :  1.40009e-05
 Reference value :  1.40014e-05
 Reference value :  1.40022e-05
 Reference value :  1.40028e-05
 Reference value :  1.40035e-05
 Reference value :  1.40042e-05
 Reference value :  1.40052e-05
 Reference value :  1.40061e-05
 Reference value :  1.40071e-05
 Reference value :  1.40085e-05
 Reference value :  1.40099e-05
 Reference value :  1.40112e-05
 Reference value :  1.40126e-05
 Reference value :  1.40139e-05
 Reference value :  1.40154e-05
 Reference value :  1.40169e-05
 Reference value :  1.40186e-05
 Reference value :  1.40220e-05
 Reference value :  1.40288e-05
 Reference value :  1.40405e-05
 Reference value :  1.40638e-05
 Reference value :  1.41077e-05
 Reference value :  1.41957e-05
 Reference value :  1.42501e-05
 Reference value :  1.42501e-05
 Reference value :  1.42501e-05
 Reference value :  1.42502e-05
 Reference value :  1.42502e-05
 Reference value :  1.42502e-05
 Reference value :  1.42502e-05
 Reference value :  1.42502e-05
 Reference value :  1.42502e-05
 Reference value :  1.42502e-05
 Reference value :  1.42502e-05
 Reference value :  1.42503e-05
 Reference value :  1.42504e-05
 Reference value :  1.42506e-05
 Reference value :  1.42509e-05
 Reference value :  1.42514e-05
 Reference value :  1.42519e-05
 Reference value :  1.42525e-05
 Reference value :  1.42533e-05
 Reference value :  1.42541e-05
 Reference value :  1.42553e-05
 Reference value :  1.42562e-05
 Reference value :  1.42572e-05
 Reference value :  1.42582e-05
 Reference value :  1.42593e-05
 Reference value :  1.42606e-05
 Reference value :  1.42619e-05
 Reference value :  1.42633e-05
 Reference value :  1.42654e-05
 Reference value :  1.42677e-05
 Reference value :  1.42713e-05
 Reference value :  1.42770e-05
 Reference value :  1.42885e-05
 Reference value :  1.43114e-05
 Reference value :  1.43569e-05
 Reference value :  1.44480e-05
 Reference value :  1.45000e-05
 Reference value :  1.45000e-05
 Reference value :  1.45000e-05
 Reference value :  1.45001e-05
 Reference value :  1.45001e-05
 Reference value :  1.45001e-05
 Reference value :  1.45001e-05
 Reference value :  1.45001e-05
 Reference value :  1.45002e-05
 Reference value :  1.45002e-05
 Reference value :  1.45004e-05
 Reference value :  1.45005e-05
 Reference value :  1.45009e-05
 Reference value :  1.45014e-05
 Reference value :  1.45022e-05
 Reference value :  1.45029e-05
 Reference value :  1.45036e-05
 Reference value :  1.45043e-05
 Reference value :  1.45051e-05
 Reference value :  1.45059e-05
 Reference value :  1.45067e-05
 Reference value :  1.45078e-05
 Reference value :  1.45088e-05
 Reference value :  1.45097e-05
 Reference value :  1.45108e-05
 Reference value :  1.45120e-05
 Reference value :  1.45139e-05
 Reference value :  1.45152e-05
 Reference value :  1.45167e-05
 Reference value :  1.45181e-05
 Reference value :  1.45197e-05
 Reference value :  1.45212e-05
 Reference value :  1.45224e-05
 Reference value :  1.45236e-05
 Reference value :  1.45249e-05
 Reference value :  1.45262e-05
 Reference value :  1.45279e-05
 Reference value :  1.45295e-05
 Reference value :  1.45322e-05
 Reference value :  1.45348e-05
 Reference value :  1.45399e-05
 Reference value :  1.45455e-05
 Reference value :  1.45507e-05
 Reference value :  1.45576e-05
 Reference value :  1.45667e-05
 Reference value :  1.45806e-05
 Reference value :  1.46025e-05
 Reference value :  1.46463e-05
 Reference value :  1.47248e-05
 Reference value :  1.47501e-05
 Reference value :  1.47501e-05
 Reference value :  1.47501e-05
 Reference value :  1.47502e-05
 Reference value :  1.47502e-05
 Reference value :  1.47502e-05
 Reference value :  1.47502e-05
 Reference value :  1.47502e-05
 Reference value :  1.47502e-05
 Reference value :  1.47502e-05
 Reference value :  1.47502e-05
 Reference value :  1.47503e-05
 Reference value :  1.47504e-05
 Reference value :  1.47506e-05
 Reference value :  1.47509e-05
 Reference value :  1.47514e-05
 Reference value :  1.47519e-05
 Reference value :  1.47525e-05
 Reference value :  1.47533e-05
 Reference value :  1.47541e-05
 Reference value :  1.47553e-05
 Reference value :  1.47562e-05
 Reference value :  1.47571e-05
 Reference value :  1.47582e-05
 Reference value :  1.47598e-05
 Reference value :  1.47612e-05
 Reference value :  1.47638e-05
 Reference value :  1.47667e-05
 Reference value :  1.47721e-05
 Reference value :  1.47830e-05
 Reference value :  1.48017e-05
 Reference value :  1.48390e-05
 Reference value :  1.49124e-05
 Reference value :  1.50000e-05
 Reference value :  1.50000e-05
 Reference value :  1.50000e-05
 Reference value :  1.50001e-05
 Reference value :  1.50001e-05
 Reference value :  1.50001e-05
 Reference value :  1.50001e-05
 Reference value :  1.50001e-05
 Reference value :  1.50002e-05
 Reference value :  1.50002e-05
 Reference value :  1.50004e-05
 Reference value :  1.50005e-05
 Reference value :  1.50009e-05
 Reference value :  1.50014e-05
 Reference value :  1.50022e-05
 Reference value :  1.50028e-05
 Reference value :  1.50035e-05
 Reference value :  1.50042e-05
 Reference value :  1.50051e-05
 Reference value :  1.50061e-05
 Reference value :  1.50070e-05
 Reference value :  1.50085e-05
 Reference value :  1.50099e-05
 Reference value :  1.50113e-05
 Reference value :  1.50128e-05
 Reference value :  1.50142e-05
 Reference value :  1.50157e-05
 Reference value :  1.50172e-05
 Reference value :  1.50190e-05
 Reference value :  1.50226e-05
 Reference value :  1.50284e-05
 Reference value :  1.50401e-05
 Reference value :  1.50622e-05
 Reference value :  1.51032e-05
 Reference value :  1.51851e-05
 Reference value :  1.52501e-05
 Reference value :  1.52501e-05
 Reference value :  1.52501e-05
 Reference value :  1.52502e-05
 Reference value :  1.52502e-05
 Reference value :  1.52502e-05
 Reference value :  1.52502e-05
 Reference value :  1.52502e-05
 Reference value :  1.52502e-05
 Reference value :  1.52502e-05
 Reference value :  1.52502e-05
 Reference value :  1.52503e-05
 Reference value :  1.52504e-05
 Reference value :  1.52506e-05
 Reference value :  1.52509e-05
 Reference value :  1.52514e-05
 Reference value :  1.52519e-05
 Reference value :  1.52525e-05
 Reference value :  1.52533e-05
 Reference value :  1.52541e-05
 Reference value :  1.52553e-05
 Reference value :  1.52562e-05
 Reference value :  1.52572e-05
 Reference value :  1.52582e-05
 Reference value :  1.52593e-05
 Reference value :  1.52606e-05
 Reference value :  1.52619e-05
 Reference value :  1.52633e-05
 Reference value :  1.52654e-05
 Reference value :  1.52677e-05
 Reference value :  1.52714e-05
 Reference value :  1.52771e-05
 Reference value :  1.52886e-05
 Reference value :  1.53116e-05
 Reference value :  1.53565e-05
 Reference value :  1.54463e-05
 Reference value :  1.55000e-05
 Reference value :  1.55008e-05
 Reference value :  1.55023e-05
 Reference value :  1.55031e-05
 Reference value :  1.55039e-05
 Reference value :  1.55048e-05
 Reference value :  1.55058e-05
 Reference value :  1.55066e-05
 Reference value :  1.55075e-05
 Reference value :  1.55084e-05
 Reference value :  1.55094e-05
 Reference value :  1.55103e-05
 Reference value :  1.55116e-05
 Reference value :  1.55131e-05
 Reference value :  1.55149e-05
 Reference value :  1.55167e-05
 Reference value :  1.55186e-05
 Reference value :  1.55203e-05
 Reference value :  1.55218e-05
 Reference value :  1.55235e-05
 Reference value :  1.55251e-05
 Reference value :  1.55268e-05
 Reference value :  1.55286e-05
 Reference value :  1.55307e-05
 Reference value :  1.55336e-05
 Reference value :  1.55369e-05
 Reference value :  1.55416e-05
 Reference value :  1.55477e-05
 Reference value :  1.55543e-05
 Reference value :  1.55626e-05
 Reference value :  1.55737e-05
 Reference value :  1.55811e-05
 Reference value :  1.55892e-05
 Reference value :  1.55991e-05
 Reference value :  1.56130e-05
 Reference value :  1.56263e-05
 Reference value :  1.56410e-05
 Reference value :  1.56651e-05
 Reference value :  1.57133e-05
 Reference value :  1.57501e-05
 Reference value :  1.57501e-05
 Reference value :  1.57501e-05
 Reference value :  1.57502e-05
 Reference value :  1.57502e-05
 Reference value :  1.57502e-05
 Reference value :  1.57502e-05
 Reference value :  1.57502e-05
 Reference value :  1.57502e-05
 Reference value :  1.57502e-05
 Reference value :  1.57502e-05
 Reference value :  1.57503e-05
 Reference value :  1.57504e-05
 Reference value :  1.57506e-05
 Reference value :  1.57509e-05
 Reference value :  1.57514e-05
 Reference value :  1.57519e-05
 Reference value :  1.57525e-05
 Reference value :  1.57533e-05
 Reference value :  1.57541e-05
 Reference value :  1.57553e-05
 Reference value :  1.57562e-05
 Reference value :  1.57572e-05
 Reference value :  1.57583e-05
 Reference value :  1.57599e-05
 Reference value :  1.57614e-05
 Reference value :  1.57638e-05
 Reference value :  1.57670e-05
 Reference value :  1.57725e-05
 Reference value :  1.57837e-05
 Reference value :  1.58027e-05
 Reference value :  1.58406e-05
 Reference value :  1.59100e-05
 Reference value :  1.60000e-05
 Reference value :  1.60000e-05
 Reference value :  1.60000e-05
 Reference value :  1.60001e-05
 Reference value :  1.60001e-05
 Reference value :  1.60001e-05
 Reference value :  1.60001e-05
 Reference value :  1.60001e-05
 Reference value :  1.60002e-05
 Reference value :  1.60002e-05
[...]
 Reference value :  2.67756e-04
 Reference value :  2.67757e-04
 Reference value :  2.67758e-04
 Reference value :  2.67760e-04
 Reference value :  2.67761e-04
 Reference value :  2.67764e-04
 Reference value :  2.67767e-04
 Reference value :  2.67772e-04
 Reference value :  2.67783e-04
 Reference value :  2.67802e-04
 Reference value :  2.67840e-04
 Reference value :  2.67914e-04
 Reference value :  2.68000e-04
 Reference value :  2.68000e-04
 Reference value :  2.68000e-04
 Reference value :  2.68000e-04
 Reference value :  2.68000e-04
 Reference value :  2.68000e-04
 Reference value :  2.68000e-04
 Reference value :  2.68000e-04
 Reference value :  2.68000e-04
 Reference value :  2.68000e-04
 Reference value :  2.68000e-04
 Reference value :  2.68001e-04
 Reference value :  2.68001e-04
 Reference value :  2.68001e-04
 Reference value :  2.68002e-04
 Reference value :  2.68003e-04
 Reference value :  2.68004e-04
 Reference value :  2.68004e-04
 Reference value :  2.68005e-04
 Reference value :  2.68006e-04
 Reference value :  2.68007e-04
 Reference value :  2.68009e-04
 Reference value :  2.68010e-04
 Reference value :  2.68011e-04
 Reference value :  2.68012e-04
 Reference value :  2.68014e-04
 Reference value :  2.68015e-04
 Reference value :  2.68017e-04
 Reference value :  2.68019e-04
 Reference value :  2.68022e-04
 Reference value :  2.68029e-04
 Reference value :  2.68041e-04
 Reference value :  2.68064e-04
 Reference value :  2.68109e-04
 Reference value :  2.68191e-04
 Reference value :  2.68250e-04
 Reference value :  2.68250e-04
 Reference value :  2.68250e-04
 Reference value :  2.68250e-04
 Reference value :  2.68250e-04
 Reference value :  2.68250e-04
 Reference value :  2.68250e-04
 Reference value :  2.68250e-04
 Reference value :  2.68250e-04
 Reference value :  2.68250e-04
 Reference value :  2.68250e-04
 Reference value :  2.68250e-04
 Reference value :  2.68250e-04
 Reference value :  2.68251e-04
 Reference value :  2.68251e-04
 Reference value :  2.68251e-04
 Reference value :  2.68252e-04
 Reference value :  2.68252e-04
 Reference value :  2.68253e-04
 Reference value :  2.68254e-04
 Reference value :  2.68255e-04
 Reference value :  2.68256e-04
 Reference value :  2.68257e-04
 Reference value :  2.68258e-04
 Reference value :  2.68259e-04
 Reference value :  2.68261e-04
 Reference value :  2.68263e-04
 Reference value :  2.68266e-04
 Reference value :  2.68270e-04
 Reference value :  2.68279e-04
 Reference value :  2.68296e-04
 Reference value :  2.68329e-04
 Reference value :  2.68395e-04
 Reference value :  2.68500e-04
 Reference value :  2.68500e-04
 Reference value :  2.68500e-04
 Reference value :  2.68500e-04
 Reference value :  2.68500e-04
 Reference value :  2.68500e-04
 Reference value :  2.68500e-04
 Reference value :  2.68500e-04
 Reference value :  2.68500e-04
 Reference value :  2.68500e-04
 Reference value :  2.68500e-04
 Reference value :  2.68501e-04
 Reference value :  2.68501e-04
 Reference value :  2.68501e-04
 Reference value :  2.68502e-04
 Reference value :  2.68503e-04
 Reference value :  2.68504e-04
 Reference value :  2.68504e-04
 Reference value :  2.68505e-04
 Reference value :  2.68506e-04
 Reference value :  2.68507e-04
 Reference value :  2.68508e-04
 Reference value :  2.68509e-04
 Reference value :  2.68510e-04
 Reference value :  2.68511e-04
 Reference value :  2.68512e-04
 Reference value :  2.68514e-04
 Reference value :  2.68516e-04
 Reference value :  2.68518e-04
 Reference value :  2.68520e-04
 Reference value :  2.68522e-04
 Reference value :  2.68524e-04
 Reference value :  2.68525e-04
 Reference value :  2.68527e-04
 Reference value :  2.68529e-04
 Reference value :  2.68531e-04
 Reference value :  2.68534e-04
 Reference value :  2.68538e-04
 Reference value :  2.68544e-04
 Reference value :  2.68556e-04
 Reference value :  2.68569e-04
 Reference value :  2.68579e-04
 Reference value :  2.68588e-04
 Reference value :  2.68597e-04
 Reference value :  2.68604e-04
 Reference value :  2.68611e-04
 Reference value :  2.68618e-04
 Reference value :  2.68626e-04
 Reference value :  2.68641e-04
 Reference value :  2.68660e-04
 Reference value :  2.68692e-04
 Reference value :  2.68730e-04
 Reference value :  2.68750e-04
 Reference value :  2.68750e-04
 Reference value :  2.68750e-04
 Reference value :  2.68750e-04
 Reference value :  2.68750e-04
 Reference value :  2.68750e-04
 Reference value :  2.68750e-04
 Reference value :  2.68750e-04
 Reference value :  2.68750e-04
 Reference value :  2.68750e-04
 Reference value :  2.68750e-04
 Reference value :  2.68750e-04
 Reference value :  2.68750e-04
 Reference value :  2.68751e-04
 Reference value :  2.68751e-04
 Reference value :  2.68751e-04
 Reference value :  2.68752e-04
 Reference value :  2.68752e-04
 Reference value :  2.68753e-04
 Reference value :  2.68754e-04
 Reference value :  2.68755e-04
 Reference value :  2.68756e-04
 Reference value :  2.68757e-04
 Reference value :  2.68758e-04
 Reference value :  2.68760e-04
 Reference value :  2.68761e-04
 Reference value :  2.68764e-04
 Reference value :  2.68767e-04
 Reference value :  2.68772e-04
 Reference value :  2.68783e-04
 Reference value :  2.68802e-04
 Reference value :  2.68839e-04
 Reference value :  2.68910e-04
 Reference value :  2.69000e-04
 Reference value :  2.69000e-04
 Reference value :  2.69000e-04
 Reference value :  2.69000e-04
 Reference value :  2.69000e-04
 Reference value :  2.69000e-04
 Reference value :  2.69000e-04
 Reference value :  2.69000e-04
 Reference value :  2.69000e-04
 Reference value :  2.69000e-04
 Reference value :  2.69000e-04
 Reference value :  2.69001e-04
 Reference value :  2.69001e-04
 Reference value :  2.69001e-04
 Reference value :  2.69002e-04
 Reference value :  2.69003e-04
 Reference value :  2.69004e-04
 Reference value :  2.69004e-04
 Reference value :  2.69005e-04
 Reference value :  2.69006e-04
 Reference value :  2.69007e-04
 Reference value :  2.69009e-04
 Reference value :  2.69010e-04
 Reference value :  2.69011e-04
 Reference value :  2.69013e-04
 Reference value :  2.69014e-04
 Reference value :  2.69015e-04
 Reference value :  2.69017e-04
 Reference value :  2.69019e-04
 Reference value :  2.69022e-04
 Reference value :  2.69029e-04
 Reference value :  2.69040e-04
 Reference value :  2.69063e-04
 Reference value :  2.69107e-04
 Reference value :  2.69194e-04
 Reference value :  2.69250e-04
 Reference value :  2.69250e-04
 Reference value :  2.69250e-04
 Reference value :  2.69250e-04
 Reference value :  2.69250e-04
 Reference value :  2.69250e-04
 Reference value :  2.69250e-04
 Reference value :  2.69250e-04
 Reference value :  2.69250e-04
 Reference value :  2.69250e-04
 Reference value :  2.69250e-04
 Reference value :  2.69250e-04
 Reference value :  2.69250e-04
 Reference value :  2.69251e-04
 Reference value :  2.69251e-04
 Reference value :  2.69251e-04
 Reference value :  2.69252e-04
 Reference value :  2.69252e-04
 Reference value :  2.69253e-04
 Reference value :  2.69254e-04
 Reference value :  2.69255e-04
 Reference value :  2.69256e-04
 Reference value :  2.69257e-04
 Reference value :  2.69258e-04
 Reference value :  2.69259e-04
 Reference value :  2.69261e-04
 Reference value :  2.69262e-04
 Reference value :  2.69263e-04
 Reference value :  2.69265e-04
 Reference value :  2.69268e-04
 Reference value :  2.69271e-04
 Reference value :  2.69277e-04
 Reference value :  2.69288e-04
 Reference value :  2.69311e-04
 Reference value :  2.69356e-04
 Reference value :  2.69446e-04
 Reference value :  2.69500e-04
 Reference value :  2.69500e-04
 Reference value :  2.69500e-04
 Reference value :  2.69500e-04
 Reference value :  2.69500e-04
 Reference value :  2.69500e-04
 Reference value :  2.69500e-04
 Reference value :  2.69500e-04
 Reference value :  2.69500e-04
 Reference value :  2.69500e-04
 Reference value :  2.69500e-04
 Reference value :  2.69501e-04
 Reference value :  2.69501e-04
 Reference value :  2.69501e-04
 Reference value :  2.69502e-04
 Reference value :  2.69503e-04
 Reference value :  2.69504e-04
 Reference value :  2.69504e-04
 Reference value :  2.69505e-04
 Reference value :  2.69506e-04
 Reference value :  2.69507e-04
 Reference value :  2.69508e-04
 Reference value :  2.69509e-04
 Reference value :  2.69510e-04
 Reference value :  2.69511e-04
 Reference value :  2.69512e-04
 Reference value :  2.69514e-04
 Reference value :  2.69515e-04
 Reference value :  2.69517e-04
 Reference value :  2.69518e-04
 Reference value :  2.69520e-04
 Reference value :  2.69521e-04
 Reference value :  2.69522e-04
 Reference value :  2.69524e-04
 Reference value :  2.69525e-04
 Reference value :  2.69526e-04
 Reference value :  2.69528e-04
 Reference value :  2.69530e-04
 Reference value :  2.69532e-04
 Reference value :  2.69535e-04
 Reference value :  2.69539e-04
 Reference value :  2.69542e-04
 Reference value :  2.69547e-04
 Reference value :  2.69550e-04
 Reference value :  2.69552e-04
 Reference value :  2.69556e-04
 Reference value :  2.69560e-04
 Reference value :  2.69566e-04
 Reference value :  2.69574e-04
 Reference value :  2.69582e-04
 Reference value :  2.69597e-04
 Reference value :  2.69621e-04
 Reference value :  2.69659e-04
 Reference value :  2.69726e-04
 Reference value :  2.69750e-04
 Reference value :  2.69750e-04
 Reference value :  2.69750e-04
 Reference value :  2.69750e-04
 Reference value :  2.69750e-04
 Reference value :  2.69750e-04
 Reference value :  2.69750e-04
 Reference value :  2.69750e-04
 Reference value :  2.69750e-04
 Reference value :  2.69750e-04
 Reference value :  2.69750e-04
 Reference value :  2.69750e-04
 Reference value :  2.69750e-04
 Reference value :  2.69751e-04
 Reference value :  2.69751e-04
 Reference value :  2.69751e-04
 Reference value :  2.69752e-04
 Reference value :  2.69752e-04
 Reference value :  2.69753e-04
 Reference value :  2.69754e-04
 Reference value :  2.69755e-04
 Reference value :  2.69756e-04
 Reference value :  2.69757e-04
 Reference value :  2.69758e-04
 Reference value :  2.69760e-04
 Reference value :  2.69761e-04
 Reference value :  2.69763e-04
 Reference value :  2.69766e-04
 Reference value :  2.69771e-04
 Reference value :  2.69782e-04
 Reference value :  2.69800e-04
 Reference value :  2.69836e-04
 Reference value :  2.69908e-04
 Reference value :  2.70000e-04
 Reference value :  2.70000e-04
 Reference value :  2.70000e-04
 Reference value :  2.70000e-04
 Reference value :  2.70000e-04
 Reference value :  2.70000e-04
 Reference value :  2.70000e-04
 Reference value :  2.70000e-04
 Reference value :  2.70000e-04
 Reference value :  2.70000e-04
 Reference value :  2.70000e-04
 Reference value :  2.70001e-04
 Reference value :  2.70001e-04
 Reference value :  2.70001e-04
 Reference value :  2.70002e-04
 Reference value :  2.70003e-04
 Reference value :  2.70004e-04
 Reference value :  2.70004e-04
 Reference value :  2.70005e-04
 Reference value :  2.70006e-04
 Reference value :  2.70007e-04
 Reference value :  2.70009e-04
 Reference value :  2.70010e-04
 Reference value :  2.70011e-04
 Reference value :  2.70013e-04
 Reference value :  2.70014e-04
 Reference value :  2.70015e-04
 Reference value :  2.70017e-04
 Reference value :  2.70019e-04
 Reference value :  2.70022e-04
 Reference value :  2.70029e-04
 Reference value :  2.70040e-04
 Reference value :  2.70064e-04
 Reference value :  2.70107e-04
 Reference value :  2.70189e-04
 Reference value :  2.70250e-04
 Reference value :  2.70250e-04
 Reference value :  2.70250e-04
 Reference value :  2.70250e-04
 Reference value :  2.70250e-04
 Reference value :  2.70250e-04
 Reference value :  2.70250e-04
 Reference value :  2.70250e-04
 Reference value :  2.70250e-04
 Reference value :  2.70250e-04
 Reference value :  2.70250e-04
 Reference value :  2.70250e-04
 Reference value :  2.70250e-04
 Reference value :  2.70251e-04
 Reference value :  2.70251e-04
 Reference value :  2.70251e-04
 Reference value :  2.70252e-04
 Reference value :  2.70252e-04
 Reference value :  2.70253e-04
 Reference value :  2.70254e-04
 Reference value :  2.70255e-04
 Reference value :  2.70256e-04
 Reference value :  2.70257e-04
 Reference value :  2.70258e-04
 Reference value :  2.70259e-04
 Reference value :  2.70261e-04
 Reference value :  2.70263e-04
 Reference value :  2.70266e-04
 Reference value :  2.70270e-04
 Reference value :  2.70279e-04
 Reference value :  2.70296e-04
 Reference value :  2.70329e-04
 Reference value :  2.70396e-04
 Reference value :  2.70500e-04
 Reference value :  2.70500e-04
 Reference value :  2.70500e-04
 Reference value :  2.70500e-04
 Reference value :  2.70500e-04
 Reference value :  2.70500e-04
 Reference value :  2.70500e-04
 Reference value :  2.70500e-04
 Reference value :  2.70500e-04
 Reference value :  2.70500e-04
 Reference value :  2.70500e-04
 Reference value :  2.70501e-04
 Reference value :  2.70501e-04
 Reference value :  2.70501e-04
 Reference value :  2.70502e-04
 Reference value :  2.70503e-04
 Reference value :  2.70504e-04
 Reference value :  2.70504e-04
 Reference value :  2.70505e-04
 Reference value :  2.70506e-04
 Reference value :  2.70507e-04
 Reference value :  2.70508e-04
 Reference value :  2.70509e-04
 Reference value :  2.70510e-04
 Reference value :  2.70511e-04
 Reference value :  2.70512e-04
 Reference value :  2.70514e-04
 Reference value :  2.70516e-04
 Reference value :  2.70518e-04
 Reference value :  2.70521e-04
 Reference value :  2.70522e-04
 Reference value :  2.70524e-04
 Reference value :  2.70526e-04
 Reference value :  2.70528e-04
 Reference value :  2.70529e-04
 Reference value :  2.70532e-04
 Reference value :  2.70534e-04
 Reference value :  2.70539e-04
 Reference value :  2.70545e-04
 Reference value :  2.70556e-04
 Reference value :  2.70567e-04
 Reference value :  2.70587e-04
 Reference value :  2.70613e-04
 Reference value :  2.70643e-04
 Reference value :  2.70685e-04
 Reference value :  2.70723e-04
 Reference value :  2.70750e-04
 Reference value :  2.70750e-04
 Reference value :  2.70750e-04
 Reference value :  2.70750e-04
 Reference value :  2.70750e-04
 Reference value :  2.70750e-04
 Reference value :  2.70750e-04
 Reference value :  2.70750e-04
 Reference value :  2.70750e-04
 Reference value :  2.70750e-04
 Reference value :  2.70750e-04
 Reference value :  2.70750e-04
 Reference value :  2.70750e-04
 Reference value :  2.70751e-04
 Reference value :  2.70751e-04
 Reference value :  2.70751e-04
 Reference value :  2.70752e-04
 Reference value :  2.70752e-04
 Reference value :  2.70753e-04
 Reference value :  2.70754e-04
 Reference value :  2.70755e-04
 Reference value :  2.70756e-04
 Reference value :  2.70757e-04
 Reference value :  2.70758e-04
 Reference value :  2.70760e-04
 Reference value :  2.70762e-04
 Reference value :  2.70764e-04
 Reference value :  2.70767e-04
 Reference value :  2.70773e-04
 Reference value :  2.70784e-04
 Reference value :  2.70804e-04
 Reference value :  2.70842e-04
 Reference value :  2.70912e-04
 Reference value :  2.70988e-04
 Reference value :  2.71000e-04
 Reference value :  2.71000e-04
 Reference value :  2.71000e-04
 Reference value :  2.71000e-04
 Reference value :  2.71000e-04
 Reference value :  2.71000e-04
 Reference value :  2.71000e-04
 Reference value :  2.71000e-04
 Reference value :  2.71000e-04
 Reference value :  2.71000e-04
 Reference value :  2.71000e-04
 Reference value :  2.71001e-04
 Reference value :  2.71001e-04
 Reference value :  2.71001e-04
 Reference value :  2.71002e-04
 Reference value :  2.71003e-04
 Reference value :  2.71003e-04
 Reference value :  2.71004e-04
 Reference value :  2.71005e-04
 Reference value :  2.71006e-04
 Reference value :  2.71007e-04
 Reference value :  2.71008e-04
 Reference value :  2.71010e-04
 Reference value :  2.71011e-04
 Reference value :  2.71012e-04
 Reference value :  2.71014e-04
 Reference value :  2.71015e-04
 Reference value :  2.71017e-04
 Reference value :  2.71019e-04
 Reference value :  2.71022e-04
 Reference value :  2.71027e-04
 Reference value :  2.71036e-04
 Reference value :  2.71052e-04
 Reference value :  2.71082e-04
 Reference value :  2.71137e-04
 Reference value :  2.71239e-04
 Reference value :  2.71250e-04
 Reference value :  2.71250e-04
 Reference value :  2.71250e-04
 Reference value :  2.71250e-04
 Reference value :  2.71250e-04
 Reference value :  2.71250e-04
 Reference value :  2.71250e-04
 Reference value :  2.71250e-04
 Reference value :  2.71250e-04
 Reference value :  2.71250e-04
 Reference value :  2.71250e-04
 Reference value :  2.71250e-04
 Reference value :  2.71250e-04
 Reference value :  2.71251e-04
 Reference value :  2.71251e-04
 Reference value :  2.71251e-04
 Reference value :  2.71252e-04
 Reference value :  2.71252e-04
 Reference value :  2.71253e-04
 Reference value :  2.71254e-04
 Reference value :  2.71255e-04
 Reference value :  2.71256e-04
 Reference value :  2.71257e-04
 Reference value :  2.71258e-04
 Reference value :  2.71259e-04
 Reference value :  2.71261e-04
 Reference value :  2.71262e-04
 Reference value :  2.71263e-04
 Reference value :  2.71265e-04
 Reference value :  2.71268e-04
 Reference value :  2.71271e-04
 Reference value :  2.71277e-04
 Reference value :  2.71289e-04
 Reference value :  2.71312e-04
 Reference value :  2.71354e-04
 Reference value :  2.71440e-04
 Reference value :  2.71500e-04
 Reference value :  2.71500e-04
 Reference value :  2.71500e-04
 Reference value :  2.71500e-04
 Reference value :  2.71500e-04
 Reference value :  2.71500e-04
 Reference value :  2.71500e-04
 Reference value :  2.71500e-04
 Reference value :  2.71500e-04
 Reference value :  2.71500e-04
 Reference value :  2.71500e-04
 Reference value :  2.71501e-04
 Reference value :  2.71501e-04
 Reference value :  2.71501e-04
 Reference value :  2.71502e-04
 Reference value :  2.71503e-04
 Reference value :  2.71503e-04
 Reference value :  2.71504e-04
 Reference value :  2.71505e-04
 Reference value :  2.71506e-04
 Reference value :  2.71507e-04
 Reference value :  2.71508e-04
 Reference value :  2.71509e-04
 Reference value :  2.71510e-04
 Reference value :  2.71511e-04
 Reference value :  2.71512e-04
 Reference value :  2.71514e-04
 Reference value :  2.71515e-04
 Reference value :  2.71517e-04
 Reference value :  2.71518e-04
 Reference value :  2.71520e-04
 Reference value :  2.71522e-04
 Reference value :  2.71524e-04
 Reference value :  2.71527e-04
 Reference value :  2.71529e-04
 Reference value :  2.71534e-04
 Reference value :  2.71538e-04
 Reference value :  2.71542e-04
 Reference value :  2.71545e-04
 Reference value :  2.71550e-04
 Reference value :  2.71555e-04
 Reference value :  2.71560e-04
 Reference value :  2.71569e-04
 Reference value :  2.71583e-04
 Reference value :  2.71603e-04
 Reference value :  2.71640e-04
 Reference value :  2.71695e-04
 Reference value :  2.71750e-04
 Reference value :  2.71750e-04
 Reference value :  2.71750e-04
 Reference value :  2.71750e-04
 Reference value :  2.71750e-04
 Reference value :  2.71750e-04
 Reference value :  2.71750e-04
 Reference value :  2.71750e-04
 Reference value :  2.71750e-04
 Reference value :  2.71750e-04
 Reference value :  2.71750e-04
 Reference value :  2.71750e-04
 Reference value :  2.71750e-04
 Reference value :  2.71751e-04
 Reference value :  2.71751e-04
 Reference value :  2.71751e-04
 Reference value :  2.71752e-04
 Reference value :  2.71753e-04
 Reference value :  2.71753e-04
 Reference value :  2.71754e-04
 Reference value :  2.71755e-04
 Reference value :  2.71756e-04
 Reference value :  2.71758e-04
 Reference value :  2.71759e-04
 Reference value :  2.71761e-04
 Reference value :  2.71764e-04
 Reference value :  2.71767e-04
 Reference value :  2.71772e-04
 Reference value :  2.71782e-04
 Reference value :  2.71799e-04
 Reference value :  2.71832e-04
 Reference value :  2.71891e-04
 Reference value :  2.72000e-04
No. of Data Rows : 41641
ngspice-44 done
