
Note: Compatibility modes selected: hs a


Circuit: ** sch_path: /home/ece/cace/sar-adc-using-sky130-pdk/runs/run_2025-09-11_20-49-22/parameters/dnl/run_0/sar_output_dnl.sch

option SCALE: Scale is set to 1e-06 for instance and model parameters
option SCALE: Scale is set to 1e-06 for instance and model parameters
option SCALE: Scale is set to 1e-06 for instance and model parameters
option SCALE: Scale is set to 1e-06 for instance and model parameters
Doing analysis at TEMP = 27.000000 and TNOM = 27.000000

Using KLU as Direct Linear Solver
Operating point simulation skipped by 'uic',
  now using transient initial conditions.
 Reference value :  1.00000e-12
 Reference value :  1.02772e-12
 Reference value :  1.08316e-12
 Reference value :  1.19404e-12
 Reference value :  1.33842e-12
 Reference value :  1.62719e-12
 Reference value :  2.20473e-12
 Reference value :  3.04048e-12
 Reference value :  3.94757e-12
 Reference value :  5.17085e-12
 Reference value :  6.92445e-12
 Reference value :  1.02667e-11
 Reference value :  1.42559e-11
 Reference value :  2.09984e-11
 Reference value :  2.78505e-11
 Reference value :  3.68759e-11
 Reference value :  4.83816e-11
 Reference value :  6.52652e-11
 Reference value :  8.70126e-11
 Reference value :  1.00000e-10
 Reference value :  1.01066e-10
 Reference value :  1.03198e-10
 Reference value :  1.07463e-10
 Reference value :  1.15992e-10
 Reference value :  1.33050e-10
 Reference value :  1.67167e-10
 Reference value :  2.35400e-10
 Reference value :  3.71865e-10
 Reference value :  5.28022e-10
 Reference value :  7.69919e-10
 Reference value :  1.09551e-09
 Reference value :  1.49216e-09
 Reference value :  2.07976e-09
 Reference value :  2.70184e-09
 Reference value :  3.68813e-09
 Reference value :  4.59639e-09
 Reference value :  5.48498e-09
 Reference value :  6.48858e-09
 Reference value :  7.52591e-09
 Reference value :  8.79595e-09
 Reference value :  9.69309e-09
 Reference value :  1.05498e-08
 Reference value :  1.15905e-08
 Reference value :  1.25293e-08
 Reference value :  1.44068e-08
 Reference value :  1.70332e-08
 Reference value :  2.17760e-08
 Reference value :  2.68897e-08
 Reference value :  3.15693e-08
 Reference value :  3.60917e-08
 Reference value :  4.02519e-08
 Reference value :  4.53901e-08
 Reference value :  5.49137e-08
 Reference value :  6.64253e-08
 Reference value :  8.65354e-08
 Reference value :  1.22579e-07
 Reference value :  1.88737e-07
 Reference value :  2.50100e-07
 Reference value :  2.50110e-07
 Reference value :  2.50130e-07
 Reference value :  2.50170e-07
 Reference value :  2.50200e-07
 Reference value :  2.50201e-07
 Reference value :  2.50202e-07
 Reference value :  2.50204e-07
 Reference value :  2.50208e-07
 Reference value :  2.50216e-07
 Reference value :  2.50233e-07
 Reference value :  2.50266e-07
 Reference value :  2.50332e-07
 Reference value :  2.50438e-07
 Reference value :  2.50611e-07
 Reference value :  2.50808e-07
 Reference value :  2.51136e-07
 Reference value :  2.51583e-07
 Reference value :  2.52133e-07
 Reference value :  2.52731e-07
 Reference value :  2.53379e-07
 Reference value :  2.54229e-07
 Reference value :  2.55159e-07
 Reference value :  2.56089e-07
 Reference value :  2.56989e-07
 Reference value :  2.57972e-07
 Reference value :  2.58946e-07
 Reference value :  2.60499e-07
 Reference value :  2.62419e-07
 Reference value :  2.64909e-07
 Reference value :  2.68768e-07
 Reference value :  2.73509e-07
 Reference value :  2.82991e-07
 Reference value :  3.00569e-07
 Reference value :  3.29462e-07
 Reference value :  3.86680e-07
 Reference value :  5.00000e-07
 Reference value :  5.00010e-07
 Reference value :  5.00030e-07
 Reference value :  5.00070e-07
 Reference value :  5.00100e-07
 Reference value :  5.00104e-07
 Reference value :  5.00113e-07
 Reference value :  5.00130e-07
 Reference value :  5.00165e-07
 Reference value :  5.00234e-07
 Reference value :  5.00372e-07
 Reference value :  5.00573e-07
 Reference value :  5.00954e-07
 Reference value :  5.01538e-07
 Reference value :  5.02096e-07
 Reference value :  5.02766e-07
 Reference value :  5.03533e-07
 Reference value :  5.04331e-07
 Reference value :  5.05155e-07
 Reference value :  5.05969e-07
 Reference value :  5.07062e-07
 Reference value :  5.08130e-07
 Reference value :  5.09940e-07
 Reference value :  5.12181e-07
 Reference value :  5.14397e-07
 Reference value :  5.16701e-07
 Reference value :  5.18870e-07
 Reference value :  5.21551e-07
 Reference value :  5.24224e-07
 Reference value :  5.29329e-07
 Reference value :  5.35742e-07
 Reference value :  5.46810e-07
 Reference value :  5.66366e-07
 Reference value :  5.96608e-07
 Reference value :  6.57092e-07
 Reference value :  7.50100e-07
 Reference value :  7.50110e-07
 Reference value :  7.50130e-07
 Reference value :  7.50170e-07
 Reference value :  7.50200e-07
 Reference value :  7.50201e-07
 Reference value :  7.50202e-07
 Reference value :  7.50205e-07
 Reference value :  7.50211e-07
 Reference value :  7.50223e-07
 Reference value :  7.50247e-07
 Reference value :  7.50295e-07
 Reference value :  7.50390e-07
 Reference value :  7.50581e-07
 Reference value :  7.50959e-07
 Reference value :  7.51572e-07
 Reference value :  7.52191e-07
 Reference value :  7.52840e-07
 Reference value :  7.53541e-07
 Reference value :  7.54448e-07
 Reference value :  7.55180e-07
 Reference value :  7.56013e-07
 Reference value :  7.56742e-07
 Reference value :  7.57547e-07
 Reference value :  7.58563e-07
 Reference value :  7.59653e-07
 Reference value :  7.61835e-07
 Reference value :  7.64160e-07
 Reference value :  7.68223e-07
 Reference value :  7.72598e-07
 Reference value :  7.81348e-07
 Reference value :  7.98847e-07
 Reference value :  8.31747e-07
 Reference value :  8.97546e-07
 Reference value :  1.00000e-06
 Reference value :  1.00001e-06
 Reference value :  1.00003e-06
 Reference value :  1.00007e-06
 Reference value :  1.00010e-06
 Reference value :  1.00010e-06
 Reference value :  1.00011e-06
 Reference value :  1.00013e-06
 Reference value :  1.00016e-06
 Reference value :  1.00023e-06
 Reference value :  1.00037e-06
 Reference value :  1.00057e-06
 Reference value :  1.00095e-06
 Reference value :  1.00154e-06
 Reference value :  1.00209e-06
 Reference value :  1.00276e-06
 Reference value :  1.00353e-06
 Reference value :  1.00440e-06
 Reference value :  1.00519e-06
 Reference value :  1.00606e-06
 Reference value :  1.00684e-06
 Reference value :  1.00759e-06
 Reference value :  1.00846e-06
 Reference value :  1.00938e-06
 Reference value :  1.01056e-06
 Reference value :  1.01241e-06
 Reference value :  1.01476e-06
 Reference value :  1.01829e-06
 Reference value :  1.02070e-06
 Reference value :  1.02282e-06
 Reference value :  1.02485e-06
 Reference value :  1.02663e-06
 Reference value :  1.02849e-06
 Reference value :  1.03079e-06
 Reference value :  1.03330e-06
 Reference value :  1.03634e-06
 Reference value :  1.04062e-06
 Reference value :  1.04637e-06
 Reference value :  1.05499e-06
 Reference value :  1.06786e-06
 Reference value :  1.08747e-06
 Reference value :  1.11813e-06
 Reference value :  1.16564e-06
 Reference value :  1.23667e-06
 Reference value :  1.25010e-06
 Reference value :  1.25011e-06
 Reference value :  1.25013e-06
 Reference value :  1.25017e-06
 Reference value :  1.25020e-06
 Reference value :  1.25020e-06
 Reference value :  1.25020e-06
 Reference value :  1.25021e-06
 Reference value :  1.25021e-06
 Reference value :  1.25022e-06
 Reference value :  1.25025e-06
 Reference value :  1.25029e-06
 Reference value :  1.25039e-06
 Reference value :  1.25057e-06
 Reference value :  1.25090e-06
 Reference value :  1.25154e-06
 Reference value :  1.25213e-06
 Reference value :  1.25276e-06
 Reference value :  1.25347e-06
 Reference value :  1.25438e-06
 Reference value :  1.25516e-06
 Reference value :  1.25603e-06
 Reference value :  1.25690e-06
 Reference value :  1.25782e-06
 Reference value :  1.25903e-06
 Reference value :  1.26096e-06
 Reference value :  1.26333e-06
 Reference value :  1.26658e-06
 Reference value :  1.27087e-06
 Reference value :  1.27831e-06
 Reference value :  1.29320e-06
 Reference value :  1.32116e-06
 Reference value :  1.37708e-06
 Reference value :  1.48892e-06
 Reference value :  1.50000e-06
 Reference value :  1.50001e-06
 Reference value :  1.50003e-06
 Reference value :  1.50007e-06
 Reference value :  1.50010e-06
 Reference value :  1.50010e-06
 Reference value :  1.50011e-06
 Reference value :  1.50013e-06
 Reference value :  1.50016e-06
 Reference value :  1.50023e-06
 Reference value :  1.50037e-06
 Reference value :  1.50057e-06
 Reference value :  1.50093e-06
 Reference value :  1.50143e-06
 Reference value :  1.50196e-06
 Reference value :  1.50261e-06
 Reference value :  1.50337e-06
 Reference value :  1.50412e-06
 Reference value :  1.50495e-06
 Reference value :  1.50594e-06
 Reference value :  1.50686e-06
 Reference value :  1.50810e-06
 Reference value :  1.50927e-06
 Reference value :  1.51070e-06
 Reference value :  1.51200e-06
 Reference value :  1.51365e-06
 Reference value :  1.51501e-06
 Reference value :  1.51660e-06
 Reference value :  1.51815e-06
 Reference value :  1.51993e-06
 Reference value :  1.52349e-06
 Reference value :  1.52964e-06
 Reference value :  1.53960e-06
 Reference value :  1.55952e-06
 Reference value :  1.59936e-06
 Reference value :  1.67903e-06
 Reference value :  1.75010e-06
 Reference value :  1.75011e-06
 Reference value :  1.75013e-06
 Reference value :  1.75017e-06
 Reference value :  1.75020e-06
 Reference value :  1.75020e-06
 Reference value :  1.75020e-06
 Reference value :  1.75021e-06
 Reference value :  1.75021e-06
 Reference value :  1.75022e-06
 Reference value :  1.75025e-06
 Reference value :  1.75029e-06
 Reference value :  1.75039e-06
 Reference value :  1.75057e-06
 Reference value :  1.75090e-06
 Reference value :  1.75156e-06
 Reference value :  1.75215e-06
 Reference value :  1.75278e-06
 Reference value :  1.75348e-06
 Reference value :  1.75440e-06
 Reference value :  1.75514e-06
 Reference value :  1.75598e-06
 Reference value :  1.75671e-06
 Reference value :  1.75752e-06
 Reference value :  1.75855e-06
 Reference value :  1.75965e-06
 Reference value :  1.76185e-06
 Reference value :  1.76416e-06
 Reference value :  1.76824e-06
 Reference value :  1.77261e-06
 Reference value :  1.78136e-06
 Reference value :  1.79884e-06
 Reference value :  1.83319e-06
 Reference value :  1.90189e-06
 Reference value :  2.00000e-06
 Reference value :  2.00001e-06
 Reference value :  2.00003e-06
 Reference value :  2.00007e-06
 Reference value :  2.00010e-06
 Reference value :  2.00010e-06
 Reference value :  2.00011e-06
 Reference value :  2.00013e-06
 Reference value :  2.00016e-06
 Reference value :  2.00023e-06
 Reference value :  2.00037e-06
 Reference value :  2.00057e-06
 Reference value :  2.00093e-06
 Reference value :  2.00143e-06
 Reference value :  2.00196e-06
 Reference value :  2.00260e-06
 Reference value :  2.00337e-06
 Reference value :  2.00412e-06
 Reference value :  2.00497e-06
 Reference value :  2.00572e-06
 Reference value :  2.00654e-06
 Reference value :  2.00756e-06
 Reference value :  2.00853e-06
 Reference value :  2.00954e-06
 Reference value :  2.01097e-06
 Reference value :  2.01251e-06
 Reference value :  2.01510e-06
 Reference value :  2.01830e-06
 Reference value :  2.02061e-06
 Reference value :  2.02270e-06
 Reference value :  2.02475e-06
 Reference value :  2.02668e-06
 Reference value :  2.02852e-06
 Reference value :  2.03088e-06
 Reference value :  2.03313e-06
 Reference value :  2.03616e-06
 Reference value :  2.03983e-06
 Reference value :  2.04495e-06
 Reference value :  2.05238e-06
 Reference value :  2.06318e-06
 Reference value :  2.07984e-06
 Reference value :  2.10524e-06
 Reference value :  2.14485e-06
 Reference value :  2.20696e-06
 Reference value :  2.25010e-06
 Reference value :  2.25011e-06
 Reference value :  2.25013e-06
 Reference value :  2.25017e-06
 Reference value :  2.25020e-06
 Reference value :  2.25020e-06
 Reference value :  2.25020e-06
 Reference value :  2.25021e-06
 Reference value :  2.25021e-06
 Reference value :  2.25022e-06
 Reference value :  2.25025e-06
 Reference value :  2.25029e-06
 Reference value :  2.25039e-06
 Reference value :  2.25057e-06
 Reference value :  2.25090e-06
 Reference value :  2.25156e-06
 Reference value :  2.25215e-06
 Reference value :  2.25279e-06
 Reference value :  2.25349e-06
 Reference value :  2.25440e-06
 Reference value :  2.25516e-06
 Reference value :  2.25601e-06
 Reference value :  2.25687e-06
 Reference value :  2.25778e-06
 Reference value :  2.25898e-06
 Reference value :  2.26085e-06
 Reference value :  2.26326e-06
 Reference value :  2.26642e-06
 Reference value :  2.27071e-06
 Reference value :  2.27772e-06
 Reference value :  2.29174e-06
 Reference value :  2.31867e-06
 Reference value :  2.37252e-06
 Reference value :  2.47390e-06
 Reference value :  2.50000e-06
 Reference value :  2.50001e-06
 Reference value :  2.50003e-06
 Reference value :  2.50007e-06
 Reference value :  2.50010e-06
 Reference value :  2.50010e-06
 Reference value :  2.50011e-06
 Reference value :  2.50013e-06
 Reference value :  2.50016e-06
 Reference value :  2.50023e-06
 Reference value :  2.50037e-06
 Reference value :  2.50057e-06
 Reference value :  2.50093e-06
 Reference value :  2.50143e-06
 Reference value :  2.50196e-06
 Reference value :  2.50260e-06
 Reference value :  2.50337e-06
 Reference value :  2.50412e-06
 Reference value :  2.50495e-06
 Reference value :  2.50594e-06
 Reference value :  2.50685e-06
 Reference value :  2.50810e-06
 Reference value :  2.50926e-06
 Reference value :  2.51069e-06
 Reference value :  2.51199e-06
 Reference value :  2.51362e-06
 Reference value :  2.51497e-06
 Reference value :  2.51655e-06
 Reference value :  2.51808e-06
 Reference value :  2.51985e-06
 Reference value :  2.52341e-06
 Reference value :  2.52920e-06
 Reference value :  2.53980e-06
 Reference value :  2.56092e-06
 Reference value :  2.60314e-06
 Reference value :  2.68759e-06
 Reference value :  2.75010e-06
 Reference value :  2.75011e-06
 Reference value :  2.75013e-06
 Reference value :  2.75017e-06
 Reference value :  2.75020e-06
 Reference value :  2.75020e-06
 Reference value :  2.75020e-06
 Reference value :  2.75021e-06
 Reference value :  2.75021e-06
 Reference value :  2.75022e-06
 Reference value :  2.75025e-06
 Reference value :  2.75029e-06
 Reference value :  2.75039e-06
 Reference value :  2.75057e-06
 Reference value :  2.75090e-06
 Reference value :  2.75156e-06
 Reference value :  2.75215e-06
 Reference value :  2.75279e-06
 Reference value :  2.75349e-06
 Reference value :  2.75440e-06
 Reference value :  2.75514e-06
 Reference value :  2.75598e-06
 Reference value :  2.75670e-06
 Reference value :  2.75751e-06
 Reference value :  2.75854e-06
 Reference value :  2.75964e-06
 Reference value :  2.76185e-06
 Reference value :  2.76417e-06
 Reference value :  2.76825e-06
 Reference value :  2.77262e-06
 Reference value :  2.78136e-06
 Reference value :  2.79884e-06
 Reference value :  2.83380e-06
 Reference value :  2.90373e-06
 Reference value :  3.00000e-06
 Reference value :  3.00001e-06
 Reference value :  3.00003e-06
 Reference value :  3.00007e-06
 Reference value :  3.00010e-06
 Reference value :  3.00010e-06
 Reference value :  3.00011e-06
 Reference value :  3.00013e-06
 Reference value :  3.00016e-06
 Reference value :  3.00023e-06
 Reference value :  3.00037e-06
 Reference value :  3.00057e-06
 Reference value :  3.00093e-06
 Reference value :  3.00143e-06
 Reference value :  3.00196e-06
 Reference value :  3.00260e-06
 Reference value :  3.00337e-06
 Reference value :  3.00412e-06
 Reference value :  3.00497e-06
 Reference value :  3.00575e-06
 Reference value :  3.00655e-06
 Reference value :  3.00763e-06
 Reference value :  3.00863e-06
 Reference value :  3.00964e-06
 Reference value :  3.01107e-06
 Reference value :  3.01274e-06
 Reference value :  3.01546e-06
 Reference value :  3.01836e-06
 Reference value :  3.02065e-06
 Reference value :  3.02252e-06
 Reference value :  3.02430e-06
 Reference value :  3.02589e-06
 Reference value :  3.02761e-06
 Reference value :  3.02964e-06
 Reference value :  3.03162e-06
 Reference value :  3.03453e-06
 Reference value :  3.03782e-06
 Reference value :  3.04339e-06
 Reference value :  3.04886e-06
 Reference value :  3.05541e-06
 Reference value :  3.06143e-06
 Reference value :  3.06596e-06
 Reference value :  3.07066e-06
 Reference value :  3.07643e-06
 Reference value :  3.08245e-06
 Reference value :  3.09120e-06
 Reference value :  3.09835e-06
 Reference value :  3.10674e-06
 Reference value :  3.11652e-06
 Reference value :  3.13271e-06
 Reference value :  3.15444e-06
 Reference value :  3.18274e-06
 Reference value :  3.21381e-06
 Reference value :  3.24989e-06
 Reference value :  3.25010e-06
 Reference value :  3.25011e-06
 Reference value :  3.25013e-06
 Reference value :  3.25017e-06
 Reference value :  3.25020e-06
 Reference value :  3.25020e-06
 Reference value :  3.25020e-06
 Reference value :  3.25021e-06
 Reference value :  3.25021e-06
 Reference value :  3.25022e-06
 Reference value :  3.25025e-06
 Reference value :  3.25029e-06
 Reference value :  3.25039e-06
 Reference value :  3.25057e-06
 Reference value :  3.25090e-06
 Reference value :  3.25156e-06
 Reference value :  3.25215e-06
 Reference value :  3.25279e-06
 Reference value :  3.25349e-06
 Reference value :  3.25440e-06
 Reference value :  3.25512e-06
 Reference value :  3.25593e-06
 Reference value :  3.25679e-06
 Reference value :  3.25768e-06
 Reference value :  3.25884e-06
 Reference value :  3.26078e-06
 Reference value :  3.26323e-06
 Reference value :  3.26627e-06
 Reference value :  3.27059e-06
 Reference value :  3.27724e-06
 Reference value :  3.29056e-06
 Reference value :  3.31718e-06
 Reference value :  3.37044e-06
 Reference value :  3.47694e-06
 Reference value :  3.50000e-06
 Reference value :  3.50001e-06
 Reference value :  3.50003e-06
 Reference value :  3.50007e-06
 Reference value :  3.50010e-06
 Reference value :  3.50010e-06
 Reference value :  3.50011e-06
 Reference value :  3.50013e-06
 Reference value :  3.50016e-06
 Reference value :  3.50023e-06
 Reference value :  3.50037e-06
 Reference value :  3.50057e-06
 Reference value :  3.50093e-06
 Reference value :  3.50144e-06
 Reference value :  3.50196e-06
 Reference value :  3.50256e-06
 Reference value :  3.50328e-06
 Reference value :  3.50403e-06
 Reference value :  3.50495e-06
 Reference value :  3.50585e-06
 Reference value :  3.50685e-06
 Reference value :  3.50798e-06
 Reference value :  3.50926e-06
 Reference value :  3.51048e-06
 Reference value :  3.51175e-06
 Reference value :  3.51348e-06
 Reference value :  3.51491e-06
 Reference value :  3.51647e-06
 Reference value :  3.51803e-06
 Reference value :  3.51985e-06
 Reference value :  3.52341e-06
 Reference value :  3.52855e-06
 Reference value :  3.53883e-06
 Reference value :  3.55939e-06
 Reference value :  3.60051e-06
 Reference value :  3.68274e-06
 Reference value :  3.75010e-06
 Reference value :  3.75011e-06
 Reference value :  3.75013e-06
 Reference value :  3.75017e-06
 Reference value :  3.75020e-06
 Reference value :  3.75020e-06
 Reference value :  3.75020e-06
 Reference value :  3.75021e-06
 Reference value :  3.75021e-06
 Reference value :  3.75022e-06
 Reference value :  3.75025e-06
 Reference value :  3.75029e-06
 Reference value :  3.75039e-06
 Reference value :  3.75057e-06
 Reference value :  3.75090e-06
 Reference value :  3.75156e-06
 Reference value :  3.75215e-06
 Reference value :  3.75279e-06
 Reference value :  3.75349e-06
 Reference value :  3.75440e-06
 Reference value :  3.75514e-06
 Reference value :  3.75598e-06
 Reference value :  3.75670e-06
 Reference value :  3.75751e-06
 Reference value :  3.75854e-06
 Reference value :  3.75964e-06
 Reference value :  3.76076e-06
 Reference value :  3.76246e-06
 Reference value :  3.76449e-06
 Reference value :  3.76716e-06
 Reference value :  3.77068e-06
 Reference value :  3.77523e-06
 Reference value :  3.78433e-06
 Reference value :  3.79807e-06
 Reference value :  3.82557e-06
 Reference value :  3.88055e-06
 Reference value :  3.99051e-06
 Reference value :  4.00000e-06
 Reference value :  4.00001e-06
 Reference value :  4.00003e-06
 Reference value :  4.00007e-06
 Reference value :  4.00010e-06
 Reference value :  4.00010e-06
 Reference value :  4.00011e-06
 Reference value :  4.00013e-06
 Reference value :  4.00017e-06
 Reference value :  4.00023e-06
 Reference value :  4.00037e-06
 Reference value :  4.00057e-06
 Reference value :  4.00093e-06
 Reference value :  4.00145e-06
 Reference value :  4.00198e-06
 Reference value :  4.00262e-06
 Reference value :  4.00338e-06
 Reference value :  4.00415e-06
 Reference value :  4.00498e-06
 Reference value :  4.00570e-06
 Reference value :  4.00648e-06
 Reference value :  4.00720e-06
 Reference value :  4.00804e-06
 Reference value :  4.00886e-06
 Reference value :  4.00995e-06
 Reference value :  4.01118e-06
 Reference value :  4.01322e-06
 Reference value :  4.01459e-06
 Reference value :  4.01612e-06
 Reference value :  4.01767e-06
 Reference value :  4.01940e-06
 Reference value :  4.02101e-06
 Reference value :  4.02234e-06
 Reference value :  4.02379e-06
 Reference value :  4.02512e-06
 Reference value :  4.02662e-06
 Reference value :  4.02812e-06
 Reference value :  4.02970e-06
 Reference value :  4.03236e-06
 Reference value :  4.03530e-06
 Reference value :  4.04117e-06
 Reference value :  4.05208e-06
 Reference value :  4.06477e-06
 Reference value :  4.07820e-06
 Reference value :  4.08933e-06
 Reference value :  4.09450e-06
 Reference value :  4.09982e-06
 Reference value :  4.10520e-06
 Reference value :  4.11427e-06
 Reference value :  4.12479e-06
 Reference value :  4.14031e-06
 Reference value :  4.16214e-06
 Reference value :  4.19212e-06
 Reference value :  4.23646e-06
 Reference value :  4.25010e-06
 Reference value :  4.25011e-06
 Reference value :  4.25013e-06
 Reference value :  4.25017e-06
 Reference value :  4.25020e-06
 Reference value :  4.25020e-06
 Reference value :  4.25020e-06
 Reference value :  4.25021e-06
 Reference value :  4.25021e-06
 Reference value :  4.25022e-06
 Reference value :  4.25025e-06
 Reference value :  4.25029e-06
 Reference value :  4.25039e-06
 Reference value :  4.25057e-06
 Reference value :  4.25090e-06
 Reference value :  4.25155e-06
 Reference value :  4.25215e-06
 Reference value :  4.25279e-06
 Reference value :  4.25349e-06
 Reference value :  4.25440e-06
 Reference value :  4.25515e-06
 Reference value :  4.25600e-06
 Reference value :  4.25686e-06
 Reference value :  4.25776e-06
 Reference value :  4.25896e-06
 Reference value :  4.26084e-06
 Reference value :  4.26325e-06
 Reference value :  4.26639e-06
 Reference value :  4.27069e-06
 Reference value :  4.27746e-06
 Reference value :  4.29099e-06
 Reference value :  4.31751e-06
 Reference value :  4.37056e-06
 Reference value :  4.47666e-06
 Reference value :  4.50000e-06
 Reference value :  4.50001e-06
 Reference value :  4.50003e-06
 Reference value :  4.50007e-06
 Reference value :  4.50010e-06
 Reference value :  4.50010e-06
 Reference value :  4.50011e-06
 Reference value :  4.50013e-06
 Reference value :  4.50016e-06
 Reference value :  4.50023e-06
 Reference value :  4.50037e-06
 Reference value :  4.50057e-06
 Reference value :  4.50093e-06
 Reference value :  4.50143e-06
 Reference value :  4.50196e-06
 Reference value :  4.50260e-06
 Reference value :  4.50337e-06
 Reference value :  4.50412e-06
 Reference value :  4.50493e-06
 Reference value :  4.50583e-06
 Reference value :  4.50675e-06
 Reference value :  4.50786e-06
 Reference value :  4.50905e-06
 Reference value :  4.51021e-06
 Reference value :  4.51143e-06
 Reference value :  4.51309e-06
 Reference value :  4.51449e-06
 Reference value :  4.51600e-06
 Reference value :  4.51755e-06
 Reference value :  4.51934e-06
 Reference value :  4.52277e-06
 Reference value :  4.52779e-06
 Reference value :  4.53783e-06
 Reference value :  4.55792e-06
 Reference value :  4.59810e-06
 Reference value :  4.67847e-06
 Reference value :  4.75010e-06
 Reference value :  4.75011e-06
 Reference value :  4.75013e-06
 Reference value :  4.75017e-06
 Reference value :  4.75020e-06
 Reference value :  4.75020e-06
 Reference value :  4.75020e-06
 Reference value :  4.75021e-06
 Reference value :  4.75021e-06
 Reference value :  4.75022e-06
 Reference value :  4.75025e-06
 Reference value :  4.75029e-06
 Reference value :  4.75039e-06
 Reference value :  4.75057e-06
 Reference value :  4.75090e-06
 Reference value :  4.75155e-06
 Reference value :  4.75215e-06
 Reference value :  4.75278e-06
 Reference value :  4.75348e-06
 Reference value :  4.75440e-06
 Reference value :  4.75515e-06
 Reference value :  4.75598e-06
 Reference value :  4.75671e-06
 Reference value :  4.75751e-06
 Reference value :  4.75855e-06
 Reference value :  4.75965e-06
 Reference value :  4.76186e-06
 Reference value :  4.76418e-06
 Reference value :  4.76826e-06
 Reference value :  4.77263e-06
 Reference value :  4.78138e-06
 Reference value :  4.79889e-06
 Reference value :  4.83389e-06
 Reference value :  4.90391e-06
 Reference value :  5.00000e-06
 Reference value :  5.00001e-06
 Reference value :  5.00003e-06
 Reference value :  5.00007e-06
 Reference value :  5.00010e-06
 Reference value :  5.00010e-06
 Reference value :  5.00011e-06
 Reference value :  5.00013e-06
 Reference value :  5.00016e-06
 Reference value :  5.00023e-06
 Reference value :  5.00037e-06
 Reference value :  5.00057e-06
 Reference value :  5.00093e-06
 Reference value :  5.00143e-06
 Reference value :  5.00196e-06
 Reference value :  5.00260e-06
 Reference value :  5.00336e-06
 Reference value :  5.00412e-06
 Reference value :  5.00497e-06
 Reference value :  5.00572e-06
 Reference value :  5.00653e-06
 Reference value :  5.00734e-06
 Reference value :  5.00833e-06
 Reference value :  5.00924e-06
 Reference value :  5.01050e-06
 Reference value :  5.01208e-06
 Reference value :  5.01443e-06
 Reference value :  5.01784e-06
 Reference value :  5.02020e-06
 Reference value :  5.02227e-06
 Reference value :  5.02424e-06
 Reference value :  5.02618e-06
 Reference value :  5.02805e-06
 Reference value :  5.03034e-06
 Reference value :  5.03250e-06
 Reference value :  5.03545e-06
 Reference value :  5.03888e-06
 Reference value :  5.04398e-06
 Reference value :  5.04972e-06
 Reference value :  5.05585e-06
 Reference value :  5.06081e-06
 Reference value :  5.06603e-06
 Reference value :  5.07262e-06
 Reference value :  5.08049e-06
 Reference value :  5.08813e-06
 Reference value :  5.09604e-06
 Reference value :  5.10438e-06
 Reference value :  5.12107e-06
 Reference value :  5.14339e-06
 Reference value :  5.18267e-06
 Reference value :  5.25010e-06
 Reference value :  5.25011e-06
 Reference value :  5.25013e-06
 Reference value :  5.25017e-06
 Reference value :  5.25020e-06
 Reference value :  5.25020e-06
 Reference value :  5.25020e-06
 Reference value :  5.25021e-06
 Reference value :  5.25021e-06
 Reference value :  5.25022e-06
 Reference value :  5.25025e-06
 Reference value :  5.25029e-06
 Reference value :  5.25039e-06
 Reference value :  5.25057e-06
 Reference value :  5.25090e-06
 Reference value :  5.25156e-06
 Reference value :  5.25216e-06
 Reference value :  5.25280e-06
 Reference value :  5.25350e-06
 Reference value :  5.25442e-06
 Reference value :  5.25513e-06
 Reference value :  5.25594e-06
 Reference value :  5.25680e-06
 Reference value :  5.25770e-06
 Reference value :  5.25885e-06
 Reference value :  5.26086e-06
 Reference value :  5.26325e-06
 Reference value :  5.26636e-06
 Reference value :  5.27064e-06
 Reference value :  5.27751e-06
 Reference value :  5.29126e-06
 Reference value :  5.31875e-06
 Reference value :  5.37373e-06
 Reference value :  5.48369e-06
 Reference value :  5.50000e-06
 Reference value :  5.50001e-06
 Reference value :  5.50003e-06
 Reference value :  5.50007e-06
 Reference value :  5.50010e-06
 Reference value :  5.50010e-06
 Reference value :  5.50011e-06
 Reference value :  5.50013e-06
 Reference value :  5.50016e-06
 Reference value :  5.50023e-06
 Reference value :  5.50037e-06
 Reference value :  5.50057e-06
 Reference value :  5.50093e-06
 Reference value :  5.50144e-06
 Reference value :  5.50196e-06
 Reference value :  5.50256e-06
 Reference value :  5.50328e-06
 Reference value :  5.50403e-06
 Reference value :  5.50495e-06
 Reference value :  5.50586e-06
 Reference value :  5.50685e-06
 Reference value :  5.50811e-06
 Reference value :  5.50926e-06
 Reference value :  5.51067e-06
 Reference value :  5.51201e-06
 Reference value :  5.51359e-06
 Reference value :  5.51529e-06
 Reference value :  5.51706e-06
 Reference value :  5.51916e-06
 Reference value :  5.52265e-06
 Reference value :  5.52778e-06
 Reference value :  5.53709e-06
 Reference value :  5.55411e-06
 Reference value :  5.58483e-06
 Reference value :  5.64464e-06
 Reference value :  5.75010e-06
 Reference value :  5.75011e-06
 Reference value :  5.75013e-06
 Reference value :  5.75017e-06
 Reference value :  5.75020e-06
 Reference value :  5.75020e-06
 Reference value :  5.75020e-06
 Reference value :  5.75021e-06
 Reference value :  5.75021e-06
 Reference value :  5.75022e-06
 Reference value :  5.75025e-06
 Reference value :  5.75029e-06
 Reference value :  5.75039e-06
 Reference value :  5.75058e-06
 Reference value :  5.75091e-06
 Reference value :  5.75158e-06
 Reference value :  5.75218e-06
 Reference value :  5.75283e-06
 Reference value :  5.75353e-06
 Reference value :  5.75443e-06
 Reference value :  5.75515e-06
 Reference value :  5.75596e-06
 Reference value :  5.75667e-06
 Reference value :  5.75747e-06
 Reference value :  5.75849e-06
 Reference value :  5.75957e-06
 Reference value :  5.76066e-06
 Reference value :  5.76241e-06
 Reference value :  5.76423e-06
 Reference value :  5.76708e-06
 Reference value :  5.77035e-06
 Reference value :  5.77499e-06
 Reference value :  5.78410e-06
 Reference value :  5.79597e-06
 Reference value :  5.81930e-06
 Reference value :  5.86388e-06
 Reference value :  5.95008e-06
 Reference value :  6.00000e-06
 Reference value :  6.00001e-06
 Reference value :  6.00003e-06
 Reference value :  6.00007e-06
 Reference value :  6.00010e-06
 Reference value :  6.00010e-06
 Reference value :  6.00011e-06
 Reference value :  6.00013e-06
 Reference value :  6.00017e-06
 Reference value :  6.00023e-06
 Reference value :  6.00037e-06
 Reference value :  6.00057e-06
 Reference value :  6.00093e-06
 Reference value :  6.00145e-06
 Reference value :  6.00198e-06
 Reference value :  6.00262e-06
 Reference value :  6.00338e-06
 Reference value :  6.00415e-06
 Reference value :  6.00498e-06
 Reference value :  6.00571e-06
 Reference value :  6.00649e-06
 Reference value :  6.00722e-06
 Reference value :  6.00805e-06
 Reference value :  6.00896e-06
 Reference value :  6.01001e-06
 Reference value :  6.01161e-06
 Reference value :  6.01350e-06
 Reference value :  6.01491e-06
 Reference value :  6.01643e-06
 Reference value :  6.01813e-06
 Reference value :  6.01998e-06
 Reference value :  6.02188e-06
 Reference value :  6.02345e-06
 Reference value :  6.02512e-06
 Reference value :  6.02657e-06
 Reference value :  6.02811e-06
 Reference value :  6.02993e-06
 Reference value :  6.03263e-06
 Reference value :  6.03516e-06
 Reference value :  6.03984e-06
 Reference value :  6.04643e-06
 Reference value :  6.05215e-06
 Reference value :  6.05815e-06
 Reference value :  6.06559e-06
 Reference value :  6.07787e-06
 Reference value :  6.09758e-06
 Reference value :  6.11835e-06
 Reference value :  6.13544e-06
 Reference value :  6.15531e-06
 Reference value :  6.17536e-06
 Reference value :  6.19656e-06
 Reference value :  6.22673e-06
 Reference value :  6.25010e-06
 Reference value :  6.25011e-06
 Reference value :  6.25013e-06
 Reference value :  6.25017e-06
 Reference value :  6.25020e-06
 Reference value :  6.25020e-06
 Reference value :  6.25020e-06
 Reference value :  6.25021e-06
 Reference value :  6.25021e-06
 Reference value :  6.25022e-06
 Reference value :  6.25025e-06
 Reference value :  6.25029e-06
 Reference value :  6.25039e-06
 Reference value :  6.25057e-06
 Reference value :  6.25090e-06
 Reference value :  6.25156e-06
 Reference value :  6.25216e-06
 Reference value :  6.25279e-06
 Reference value :  6.25350e-06
 Reference value :  6.25441e-06
 Reference value :  6.25513e-06
 Reference value :  6.25595e-06
 Reference value :  6.25680e-06
 Reference value :  6.25768e-06
 Reference value :  6.25885e-06
 Reference value :  6.26073e-06
 Reference value :  6.26320e-06
 Reference value :  6.26622e-06
 Reference value :  6.27054e-06
 Reference value :  6.27706e-06
 Reference value :  6.29009e-06
 Reference value :  6.31616e-06
 Reference value :  6.36830e-06
 Reference value :  6.47258e-06
 Reference value :  6.50000e-06
 Reference value :  6.50001e-06
 Reference value :  6.50003e-06
 Reference value :  6.50007e-06
 Reference value :  6.50010e-06
 Reference value :  6.50010e-06
 Reference value :  6.50011e-06
 Reference value :  6.50013e-06
 Reference value :  6.50016e-06
 Reference value :  6.50023e-06
 Reference value :  6.50037e-06
 Reference value :  6.50057e-06
 Reference value :  6.50093e-06
 Reference value :  6.50144e-06
 Reference value :  6.50196e-06
 Reference value :  6.50256e-06
 Reference value :  6.50328e-06
 Reference value :  6.50403e-06
 Reference value :  6.50495e-06
 Reference value :  6.50585e-06
 Reference value :  6.50684e-06
 Reference value :  6.50798e-06
 Reference value :  6.50929e-06
 Reference value :  6.51052e-06
 Reference value :  6.51179e-06
 Reference value :  6.51355e-06
 Reference value :  6.51521e-06
 Reference value :  6.51685e-06
 Reference value :  6.51889e-06
 Reference value :  6.52111e-06
 Reference value :  6.52482e-06
 Reference value :  6.53026e-06
 Reference value :  6.53969e-06
 Reference value :  6.55669e-06
 Reference value :  6.58664e-06
 Reference value :  6.64307e-06
 Reference value :  6.74627e-06
 Reference value :  6.75010e-06
 Reference value :  6.75011e-06
 Reference value :  6.75013e-06
 Reference value :  6.75017e-06
 Reference value :  6.75020e-06
 Reference value :  6.75020e-06
 Reference value :  6.75020e-06
 Reference value :  6.75021e-06
 Reference value :  6.75021e-06
 Reference value :  6.75022e-06
 Reference value :  6.75025e-06
 Reference value :  6.75029e-06
 Reference value :  6.75039e-06
 Reference value :  6.75058e-06
 Reference value :  6.75091e-06
 Reference value :  6.75158e-06
 Reference value :  6.75219e-06
 Reference value :  6.75283e-06
 Reference value :  6.75353e-06
 Reference value :  6.75443e-06
 Reference value :  6.75514e-06
 Reference value :  6.75595e-06
 Reference value :  6.75666e-06
 Reference value :  6.75745e-06
 Reference value :  6.75847e-06
 Reference value :  6.75956e-06
 Reference value :  6.76059e-06
 Reference value :  6.76239e-06
 Reference value :  6.76401e-06
 Reference value :  6.76707e-06
 Reference value :  6.77014e-06
 Reference value :  6.77491e-06
 Reference value :  6.78279e-06
 Reference value :  6.79321e-06
 Reference value :  6.81083e-06
 Reference value :  6.84324e-06
 Reference value :  6.89566e-06
 Reference value :  6.99050e-06
 Reference value :  7.00000e-06
 Reference value :  7.00001e-06
 Reference value :  7.00003e-06
 Reference value :  7.00007e-06
 Reference value :  7.00010e-06
 Reference value :  7.00010e-06
 Reference value :  7.00011e-06
 Reference value :  7.00013e-06
 Reference value :  7.00016e-06
 Reference value :  7.00023e-06
 Reference value :  7.00037e-06
 Reference value :  7.00057e-06
 Reference value :  7.00093e-06
 Reference value :  7.00143e-06
 Reference value :  7.00196e-06
 Reference value :  7.00260e-06
 Reference value :  7.00336e-06
 Reference value :  7.00412e-06
 Reference value :  7.00495e-06
 Reference value :  7.00567e-06
 Reference value :  7.00646e-06
 Reference value :  7.00718e-06
 Reference value :  7.00803e-06
 Reference value :  7.00894e-06
 Reference value :  7.00999e-06
 Reference value :  7.01144e-06
 Reference value :  7.01343e-06
 Reference value :  7.01491e-06
 Reference value :  7.01649e-06
 Reference value :  7.01814e-06
 Reference value :  7.01992e-06
 Reference value :  7.02164e-06
 Reference value :  7.02291e-06
 Reference value :  7.02412e-06
 Reference value :  7.02530e-06
 Reference value :  7.02671e-06
 Reference value :  7.02811e-06
 Reference value :  7.02956e-06
 Reference value :  7.03198e-06
 Reference value :  7.03454e-06
 Reference value :  7.03753e-06
 Reference value :  7.04086e-06
 Reference value :  7.04474e-06
 Reference value :  7.05061e-06
 Reference value :  7.05939e-06
 Reference value :  7.07693e-06
 Reference value :  7.09437e-06
 Reference value :  7.11790e-06
 Reference value :  7.14860e-06
 Reference value :  7.17082e-06
 Reference value :  7.19415e-06
 Reference value :  7.22008e-06
 Reference value :  7.24889e-06
 Reference value :  7.25010e-06
 Reference value :  7.25011e-06
 Reference value :  7.25013e-06
 Reference value :  7.25017e-06
 Reference value :  7.25020e-06
 Reference value :  7.25020e-06
 Reference value :  7.25020e-06
 Reference value :  7.25021e-06
 Reference value :  7.25021e-06
 Reference value :  7.25022e-06
 Reference value :  7.25025e-06
 Reference value :  7.25029e-06
 Reference value :  7.25039e-06
 Reference value :  7.25058e-06
 Reference value :  7.25092e-06
 Reference value :  7.25158e-06
 Reference value :  7.25219e-06
 Reference value :  7.25283e-06
 Reference value :  7.25354e-06
 Reference value :  7.25443e-06
 Reference value :  7.25511e-06
 Reference value :  7.25589e-06
 Reference value :  7.25676e-06
 Reference value :  7.25764e-06
 Reference value :  7.25877e-06
 Reference value :  7.26079e-06
 Reference value :  7.26323e-06
 Reference value :  7.26627e-06
 Reference value :  7.27058e-06
 Reference value :  7.27718e-06
 Reference value :  7.29038e-06
 Reference value :  7.31679e-06
 Reference value :  7.33486e-06
 Reference value :  7.35474e-06
 Reference value :  7.37918e-06
 Reference value :  7.40592e-06
 Reference value :  7.45942e-06
 Reference value :  7.50000e-06
 Reference value :  7.50001e-06
 Reference value :  7.50003e-06
 Reference value :  7.50007e-06
 Reference value :  7.50010e-06
 Reference value :  7.50010e-06
 Reference value :  7.50011e-06
 Reference value :  7.50013e-06
 Reference value :  7.50017e-06
 Reference value :  7.50023e-06
 Reference value :  7.50037e-06
 Reference value :  7.50057e-06
 Reference value :  7.50093e-06
 Reference value :  7.50151e-06
 Reference value :  7.50205e-06
 Reference value :  7.50268e-06
 Reference value :  7.50339e-06
 Reference value :  7.50421e-06
 Reference value :  7.50503e-06
 Reference value :  7.50597e-06
 Reference value :  7.50696e-06
 Reference value :  7.50813e-06
 Reference value :  7.50932e-06
 Reference value :  7.51055e-06
 Reference value :  7.51183e-06
 Reference value :  7.51347e-06
 Reference value :  7.51490e-06
 Reference value :  7.51642e-06
 Reference value :  7.51806e-06
 Reference value :  7.51991e-06
 Reference value :  7.52331e-06
 Reference value :  7.52827e-06
 Reference value :  7.53819e-06
 Reference value :  7.55721e-06
 Reference value :  7.59391e-06
 Reference value :  7.66732e-06
 Reference value :  7.75010e-06
 Reference value :  7.75011e-06
 Reference value :  7.75013e-06
 Reference value :  7.75017e-06
 Reference value :  7.75020e-06
 Reference value :  7.75020e-06
 Reference value :  7.75020e-06
 Reference value :  7.75021e-06
 Reference value :  7.75021e-06
 Reference value :  7.75022e-06
 Reference value :  7.75025e-06
 Reference value :  7.75029e-06
 Reference value :  7.75039e-06
 Reference value :  7.75057e-06
 Reference value :  7.75091e-06
 Reference value :  7.75157e-06
 Reference value :  7.75217e-06
 Reference value :  7.75281e-06
 Reference value :  7.75352e-06
 Reference value :  7.75442e-06
 Reference value :  7.75513e-06
 Reference value :  7.75594e-06
 Reference value :  7.75665e-06
 Reference value :  7.75744e-06
 Reference value :  7.75847e-06
 Reference value :  7.75956e-06
 Reference value :  7.76065e-06
 Reference value :  7.76240e-06
 Reference value :  7.76425e-06
 Reference value :  7.76707e-06
 Reference value :  7.77041e-06
 Reference value :  7.77503e-06
 Reference value :  7.78427e-06
 Reference value :  7.79633e-06
 Reference value :  7.82041e-06
 Reference value :  7.86600e-06
 Reference value :  7.95518e-06
 Reference value :  8.00000e-06
 Reference value :  8.00001e-06
 Reference value :  8.00003e-06
 Reference value :  8.00007e-06
 Reference value :  8.00010e-06
 Reference value :  8.00010e-06
 Reference value :  8.00011e-06
 Reference value :  8.00013e-06
 Reference value :  8.00017e-06
 Reference value :  8.00023e-06
 Reference value :  8.00037e-06
 Reference value :  8.00057e-06
 Reference value :  8.00093e-06
 Reference value :  8.00151e-06
 Reference value :  8.00205e-06
 Reference value :  8.00270e-06
 Reference value :  8.00347e-06
 Reference value :  8.00429e-06
 Reference value :  8.00515e-06
 Reference value :  8.00596e-06
 Reference value :  8.00670e-06
 Reference value :  8.00742e-06
 Reference value :  8.00823e-06
 Reference value :  8.00915e-06
 Reference value :  8.01026e-06
 Reference value :  8.01211e-06
 Reference value :  8.01415e-06
 Reference value :  8.01570e-06
 Reference value :  8.01736e-06
 Reference value :  8.01895e-06
 Reference value :  8.02086e-06
 Reference value :  8.02278e-06
 Reference value :  8.02488e-06
 Reference value :  8.02789e-06
 Reference value :  8.03137e-06
 Reference value :  8.03455e-06
 Reference value :  8.03762e-06
 Reference value :  8.04092e-06
 Reference value :  8.04435e-06
 Reference value :  8.04808e-06
 Reference value :  8.05552e-06
 Reference value :  8.06729e-06
 Reference value :  8.08633e-06
 Reference value :  8.12250e-06
 Reference value :  8.16264e-06
 Reference value :  8.23256e-06
 Reference value :  8.25010e-06
 Reference value :  8.25011e-06
 Reference value :  8.25013e-06
 Reference value :  8.25017e-06
 Reference value :  8.25020e-06
 Reference value :  8.25020e-06
 Reference value :  8.25020e-06
 Reference value :  8.25021e-06
 Reference value :  8.25021e-06
 Reference value :  8.25022e-06
 Reference value :  8.25025e-06
 Reference value :  8.25029e-06
 Reference value :  8.25039e-06
 Reference value :  8.25057e-06
 Reference value :  8.25095e-06
 Reference value :  8.25158e-06
 Reference value :  8.25220e-06
 Reference value :  8.25286e-06
 Reference value :  8.25356e-06
 Reference value :  8.25444e-06
 Reference value :  8.25540e-06
 Reference value :  8.25662e-06
 Reference value :  8.25790e-06
 Reference value :  8.25938e-06
 Reference value :  8.26199e-06
 Reference value :  8.26455e-06
 Reference value :  8.26850e-06
 Reference value :  8.27324e-06
 Reference value :  8.28272e-06
 Reference value :  8.30167e-06
 Reference value :  8.33957e-06
 Reference value :  8.41538e-06
 Reference value :  8.50000e-06
 Reference value :  8.50000e-06
 Reference value :  8.50000e-06
 Reference value :  8.50000e-06
 Reference value :  8.50000e-06
 Reference value :  8.50000e-06
 Reference value :  8.50000e-06
 Reference value :  8.50000e-06
 Reference value :  8.50001e-06
 Reference value :  8.50001e-06
 Reference value :  8.50002e-06
 Reference value :  8.50004e-06
 Reference value :  8.50008e-06
 Reference value :  8.50010e-06
 Reference value :  8.50010e-06
 Reference value :  8.50011e-06
 Reference value :  8.50012e-06
 Reference value :  8.50014e-06
 Reference value :  8.50018e-06
 Reference value :  8.50026e-06
 Reference value :  8.50042e-06
 Reference value :  8.50074e-06
 Reference value :  8.50127e-06
 Reference value :  8.50184e-06
 Reference value :  8.50268e-06
 Reference value :  8.50347e-06
 Reference value :  8.50424e-06
 Reference value :  8.50514e-06
 Reference value :  8.50596e-06
 Reference value :  8.50716e-06
 Reference value :  8.50872e-06
 Reference value :  8.51040e-06
 Reference value :  8.51199e-06
 Reference value :  8.51370e-06
 Reference value :  8.51557e-06
 Reference value :  8.51859e-06
 Reference value :  8.52179e-06
 Reference value :  8.52820e-06
 Reference value :  8.53499e-06
 Reference value :  8.53969e-06
 Reference value :  8.54396e-06
 Reference value :  8.54729e-06
 Reference value :  8.55028e-06
 Reference value :  8.55260e-06
 Reference value :  8.55497e-06
 Reference value :  8.55777e-06
 Reference value :  8.56043e-06
 Reference value :  8.56432e-06
 Reference value :  8.56885e-06
 Reference value :  8.57520e-06
 Reference value :  8.58414e-06
 Reference value :  8.59658e-06
 Reference value :  8.61002e-06
 Reference value :  8.62430e-06
 Reference value :  8.64340e-06
 Reference value :  8.66869e-06
 Reference value :  8.69426e-06
 Reference value :  8.72125e-06
 Reference value :  8.75010e-06
 Reference value :  8.75011e-06
 Reference value :  8.75013e-06
 Reference value :  8.75017e-06
 Reference value :  8.75020e-06
 Reference value :  8.75020e-06
 Reference value :  8.75020e-06
 Reference value :  8.75021e-06
 Reference value :  8.75021e-06
 Reference value :  8.75022e-06
 Reference value :  8.75025e-06
 Reference value :  8.75029e-06
 Reference value :  8.75039e-06
 Reference value :  8.75058e-06
 Reference value :  8.75096e-06
 Reference value :  8.75163e-06
 Reference value :  8.75224e-06
 Reference value :  8.75291e-06
 Reference value :  8.75360e-06
 Reference value :  8.75449e-06
 Reference value :  8.75520e-06
 Reference value :  8.75600e-06
 Reference value :  8.75684e-06
 Reference value :  8.75770e-06
 Reference value :  8.75883e-06
 Reference value :  8.76065e-06
 Reference value :  8.76334e-06
 Reference value :  8.76624e-06
 Reference value :  8.77072e-06
 Reference value :  8.77699e-06
 Reference value :  8.78954e-06
 Reference value :  8.81464e-06
 Reference value :  8.86484e-06
 Reference value :  8.96524e-06
 Reference value :  9.00000e-06
 Reference value :  9.00001e-06
 Reference value :  9.00003e-06
 Reference value :  9.00007e-06
 Reference value :  9.00010e-06
 Reference value :  9.00010e-06
 Reference value :  9.00011e-06
 Reference value :  9.00013e-06
 Reference value :  9.00016e-06
 Reference value :  9.00023e-06
 Reference value :  9.00037e-06
 Reference value :  9.00057e-06
 Reference value :  9.00095e-06
 Reference value :  9.00154e-06
 Reference value :  9.00209e-06
 Reference value :  9.00276e-06
 Reference value :  9.00352e-06
 Reference value :  9.00426e-06
 Reference value :  9.00503e-06
 Reference value :  9.00584e-06
 Reference value :  9.00675e-06
 Reference value :  9.00781e-06
 Reference value :  9.00943e-06
 Reference value :  9.01164e-06
 Reference value :  9.01414e-06
 Reference value :  9.01612e-06
 Reference value :  9.01826e-06
 Reference value :  9.02030e-06
 Reference value :  9.02301e-06
 Reference value :  9.02659e-06
 Reference value :  9.03176e-06
 Reference value :  9.03959e-06
 Reference value :  9.05240e-06
 Reference value :  9.07236e-06
 Reference value :  9.10533e-06
 Reference value :  9.15885e-06
 Reference value :  9.24647e-06
 Reference value :  9.25010e-06
 Reference value :  9.25011e-06
 Reference value :  9.25013e-06
 Reference value :  9.25017e-06
 Reference value :  9.25020e-06
 Reference value :  9.25020e-06
 Reference value :  9.25020e-06
 Reference value :  9.25021e-06
 Reference value :  9.25021e-06
 Reference value :  9.25022e-06
 Reference value :  9.25025e-06
 Reference value :  9.25029e-06
 Reference value :  9.25039e-06
 Reference value :  9.25058e-06
 Reference value :  9.25096e-06
 Reference value :  9.25157e-06
 Reference value :  9.25219e-06
 Reference value :  9.25284e-06
 Reference value :  9.25354e-06
 Reference value :  9.25445e-06
 Reference value :  9.25517e-06
 Reference value :  9.25600e-06
 Reference value :  9.25673e-06
 Reference value :  9.25753e-06
 Reference value :  9.25860e-06
 Reference value :  9.25973e-06
 Reference value :  9.26198e-06
 Reference value :  9.26435e-06
 Reference value :  9.26846e-06
 Reference value :  9.27293e-06
 Reference value :  9.28187e-06
 Reference value :  9.29974e-06
 Reference value :  9.33549e-06
 Reference value :  9.40699e-06
 Reference value :  9.50000e-06
 Reference value :  9.50001e-06
 Reference value :  9.50003e-06
 Reference value :  9.50007e-06
 Reference value :  9.50010e-06
 Reference value :  9.50010e-06
 Reference value :  9.50011e-06
 Reference value :  9.50013e-06
 Reference value :  9.50016e-06
 Reference value :  9.50023e-06
 Reference value :  9.50037e-06
 Reference value :  9.50057e-06
 Reference value :  9.50095e-06
 Reference value :  9.50154e-06
 Reference value :  9.50209e-06
 Reference value :  9.50276e-06
 Reference value :  9.50352e-06
 Reference value :  9.50439e-06
 Reference value :  9.50519e-06
 Reference value :  9.50605e-06
 Reference value :  9.50684e-06
 Reference value :  9.50758e-06
 Reference value :  9.50846e-06
 Reference value :  9.50937e-06
 Reference value :  9.51056e-06
 Reference value :  9.51240e-06
 Reference value :  9.51474e-06
 Reference value :  9.51829e-06
 Reference value :  9.52071e-06
 Reference value :  9.52293e-06
 Reference value :  9.52517e-06
 Reference value :  9.52726e-06
 Reference value :  9.52923e-06
 Reference value :  9.53189e-06
 Reference value :  9.53471e-06
 Reference value :  9.53834e-06
 Reference value :  9.54350e-06
 Reference value :  9.55026e-06
 Reference value :  9.56056e-06
 Reference value :  9.57548e-06
 Reference value :  9.59802e-06
 Reference value :  9.63260e-06
 Reference value :  9.69185e-06
 Reference value :  9.75010e-06
 Reference value :  9.75011e-06
 Reference value :  9.75013e-06
 Reference value :  9.75017e-06
 Reference value :  9.75020e-06
 Reference value :  9.75020e-06
 Reference value :  9.75020e-06
 Reference value :  9.75021e-06
 Reference value :  9.75021e-06
 Reference value :  9.75022e-06
 Reference value :  9.75025e-06
 Reference value :  9.75029e-06
 Reference value :  9.75039e-06
 Reference value :  9.75058e-06
 Reference value :  9.75091e-06
 Reference value :  9.75156e-06
 Reference value :  9.75216e-06
 Reference value :  9.75279e-06
 Reference value :  9.75350e-06
 Reference value :  9.75439e-06
 Reference value :  9.75515e-06
 Reference value :  9.75599e-06
 Reference value :  9.75685e-06
 Reference value :  9.75775e-06
 Reference value :  9.75896e-06
 Reference value :  9.76079e-06
 Reference value :  9.76323e-06
 Reference value :  9.76633e-06
 Reference value :  9.77065e-06
 Reference value :  9.77744e-06
 Reference value :  9.79101e-06
 Reference value :  9.81728e-06
 Reference value :  9.86981e-06
 Reference value :  9.97486e-06
 Reference value :  1.00000e-05
 Reference value :  1.00000e-05
 Reference value :  1.00000e-05
 Reference value :  1.00001e-05
 Reference value :  1.00001e-05
 Reference value :  1.00001e-05
 Reference value :  1.00001e-05
 Reference value :  1.00001e-05
 Reference value :  1.00002e-05
 Reference value :  1.00002e-05
 Reference value :  1.00004e-05
 Reference value :  1.00006e-05
 Reference value :  1.00009e-05
 Reference value :  1.00014e-05
 Reference value :  1.00020e-05
 Reference value :  1.00026e-05
 Reference value :  1.00034e-05
 Reference value :  1.00041e-05
 Reference value :  1.00050e-05
 Reference value :  1.00059e-05
 Reference value :  1.00068e-05
 Reference value :  1.00081e-05
 Reference value :  1.00093e-05
 Reference value :  1.00107e-05
 Reference value :  1.00120e-05
 Reference value :  1.00137e-05
 Reference value :  1.00150e-05
 Reference value :  1.00166e-05
 Reference value :  1.00182e-05
 Reference value :  1.00199e-05
 Reference value :  1.00235e-05
 Reference value :  1.00295e-05
 Reference value :  1.00395e-05
 Reference value :  1.00597e-05
 Reference value :  1.01000e-05
 Reference value :  1.01806e-05
 Reference value :  1.02501e-05
 Reference value :  1.02501e-05
 Reference value :  1.02501e-05
 Reference value :  1.02502e-05
 Reference value :  1.02502e-05
 Reference value :  1.02502e-05
 Reference value :  1.02502e-05
 Reference value :  1.02502e-05
 Reference value :  1.02502e-05
 Reference value :  1.02502e-05
 Reference value :  1.02502e-05
 Reference value :  1.02503e-05
 Reference value :  1.02504e-05
 Reference value :  1.02506e-05
 Reference value :  1.02509e-05
 Reference value :  1.02516e-05
 Reference value :  1.02521e-05
 Reference value :  1.02528e-05
 Reference value :  1.02535e-05
 Reference value :  1.02544e-05
 Reference value :  1.02551e-05
 Reference value :  1.02560e-05
 Reference value :  1.02567e-05
 Reference value :  1.02575e-05
 Reference value :  1.02585e-05
 Reference value :  1.02596e-05
 Reference value :  1.02618e-05
 Reference value :  1.02642e-05
 Reference value :  1.02682e-05
 Reference value :  1.02726e-05
 Reference value :  1.02813e-05
 Reference value :  1.02988e-05
 Reference value :  1.03337e-05
 Reference value :  1.04036e-05
 Reference value :  1.05000e-05
 Reference value :  1.05000e-05
 Reference value :  1.05000e-05
 Reference value :  1.05001e-05
 Reference value :  1.05001e-05
 Reference value :  1.05001e-05
 Reference value :  1.05001e-05
 Reference value :  1.05001e-05
 Reference value :  1.05002e-05
 Reference value :  1.05002e-05
 Reference value :  1.05004e-05
 Reference value :  1.05006e-05
 Reference value :  1.05009e-05
 Reference value :  1.05014e-05
 Reference value :  1.05020e-05
 Reference value :  1.05026e-05
 Reference value :  1.05034e-05
 Reference value :  1.05041e-05
 Reference value :  1.05050e-05
 Reference value :  1.05057e-05
 Reference value :  1.05065e-05
 Reference value :  1.05076e-05
 Reference value :  1.05085e-05
 Reference value :  1.05095e-05
 Reference value :  1.05110e-05
 Reference value :  1.05125e-05
 Reference value :  1.05151e-05
 Reference value :  1.05183e-05
 Reference value :  1.05206e-05
 Reference value :  1.05227e-05
 Reference value :  1.05249e-05
 Reference value :  1.05268e-05
 Reference value :  1.05287e-05
 Reference value :  1.05310e-05
 Reference value :  1.05333e-05
 Reference value :  1.05364e-05
 Reference value :  1.05401e-05
 Reference value :  1.05453e-05
 Reference value :  1.05528e-05
 Reference value :  1.05636e-05
 Reference value :  1.05801e-05
 Reference value :  1.06052e-05
 Reference value :  1.06440e-05
 Reference value :  1.07045e-05
 Reference value :  1.07501e-05
 Reference value :  1.07501e-05
 Reference value :  1.07501e-05
 Reference value :  1.07502e-05
 Reference value :  1.07502e-05
 Reference value :  1.07502e-05
 Reference value :  1.07502e-05
 Reference value :  1.07502e-05
 Reference value :  1.07502e-05
 Reference value :  1.07502e-05
 Reference value :  1.07502e-05
 Reference value :  1.07503e-05
 Reference value :  1.07504e-05
 Reference value :  1.07506e-05
 Reference value :  1.07509e-05
 Reference value :  1.07516e-05
 Reference value :  1.07522e-05
 Reference value :  1.07528e-05
 Reference value :  1.07535e-05
 Reference value :  1.07544e-05
 Reference value :  1.07552e-05
 Reference value :  1.07560e-05
 Reference value :  1.07569e-05
 Reference value :  1.07578e-05
 Reference value :  1.07590e-05
 Reference value :  1.07608e-05
 Reference value :  1.07633e-05
 Reference value :  1.07664e-05
 Reference value :  1.07707e-05
 Reference value :  1.07777e-05
 Reference value :  1.07916e-05
 Reference value :  1.08179e-05
 Reference value :  1.08704e-05
 Reference value :  1.09724e-05
 Reference value :  1.10000e-05
 Reference value :  1.10000e-05
 Reference value :  1.10000e-05
 Reference value :  1.10001e-05
 Reference value :  1.10001e-05
 Reference value :  1.10001e-05
 Reference value :  1.10001e-05
 Reference value :  1.10001e-05
 Reference value :  1.10002e-05
 Reference value :  1.10002e-05
 Reference value :  1.10004e-05
 Reference value :  1.10006e-05
 Reference value :  1.10009e-05
 Reference value :  1.10014e-05
 Reference value :  1.10020e-05
 Reference value :  1.10026e-05
 Reference value :  1.10034e-05
 Reference value :  1.10041e-05
 Reference value :  1.10050e-05
 Reference value :  1.10059e-05
 Reference value :  1.10069e-05
 Reference value :  1.10081e-05
 Reference value :  1.10093e-05
 Reference value :  1.10107e-05
 Reference value :  1.10120e-05
 Reference value :  1.10136e-05
 Reference value :  1.10150e-05
 Reference value :  1.10165e-05
 Reference value :  1.10181e-05
 Reference value :  1.10199e-05
 Reference value :  1.10234e-05
 Reference value :  1.10291e-05
 Reference value :  1.10398e-05
 Reference value :  1.10607e-05
 Reference value :  1.11025e-05
 Reference value :  1.11861e-05
 Reference value :  1.12501e-05
 Reference value :  1.12501e-05
 Reference value :  1.12501e-05
 Reference value :  1.12502e-05
 Reference value :  1.12502e-05
 Reference value :  1.12502e-05
 Reference value :  1.12502e-05
 Reference value :  1.12502e-05
 Reference value :  1.12502e-05
 Reference value :  1.12502e-05
 Reference value :  1.12502e-05
 Reference value :  1.12503e-05
 Reference value :  1.12504e-05
 Reference value :  1.12506e-05
 Reference value :  1.12509e-05
 Reference value :  1.12516e-05
 Reference value :  1.12522e-05
 Reference value :  1.12528e-05
 Reference value :  1.12535e-05
 Reference value :  1.12544e-05
 Reference value :  1.12551e-05
 Reference value :  1.12560e-05
 Reference value :  1.12567e-05
 Reference value :  1.12575e-05
 Reference value :  1.12585e-05
 Reference value :  1.12596e-05
 Reference value :  1.12619e-05
 Reference value :  1.12642e-05
 Reference value :  1.12682e-05
 Reference value :  1.12726e-05
 Reference value :  1.12814e-05
 Reference value :  1.12989e-05
 Reference value :  1.13338e-05
 Reference value :  1.14038e-05
 Reference value :  1.15000e-05
 Reference value :  1.15000e-05
 Reference value :  1.15000e-05
 Reference value :  1.15001e-05
 Reference value :  1.15001e-05
 Reference value :  1.15001e-05
 Reference value :  1.15001e-05
 Reference value :  1.15001e-05
 Reference value :  1.15002e-05
 Reference value :  1.15002e-05
 Reference value :  1.15004e-05
 Reference value :  1.15006e-05
 Reference value :  1.15009e-05
 Reference value :  1.15014e-05
 Reference value :  1.15020e-05
 Reference value :  1.15026e-05
 Reference value :  1.15034e-05
 Reference value :  1.15041e-05
 Reference value :  1.15050e-05
 Reference value :  1.15057e-05
 Reference value :  1.15066e-05
 Reference value :  1.15076e-05
 Reference value :  1.15086e-05
 Reference value :  1.15096e-05
 Reference value :  1.15111e-05
 Reference value :  1.15127e-05
 Reference value :  1.15155e-05
 Reference value :  1.15184e-05
 Reference value :  1.15206e-05
 Reference value :  1.15225e-05
 Reference value :  1.15243e-05
 Reference value :  1.15259e-05
 Reference value :  1.15276e-05
 Reference value :  1.15296e-05
 Reference value :  1.15316e-05
 Reference value :  1.15345e-05
 Reference value :  1.15378e-05
 Reference value :  1.15434e-05
 Reference value :  1.15489e-05
 Reference value :  1.15549e-05
 Reference value :  1.15615e-05
 Reference value :  1.15662e-05
 Reference value :  1.15710e-05
 Reference value :  1.15764e-05
 Reference value :  1.15822e-05
 Reference value :  1.15903e-05
 Reference value :  1.15987e-05
 Reference value :  1.16064e-05
 Reference value :  1.16163e-05
 Reference value :  1.16335e-05
 Reference value :  1.16539e-05
 Reference value :  1.16819e-05
 Reference value :  1.17127e-05
 Reference value :  1.17491e-05
 Reference value :  1.17501e-05
 Reference value :  1.17501e-05
 Reference value :  1.17501e-05
 Reference value :  1.17502e-05
 Reference value :  1.17502e-05
 Reference value :  1.17502e-05
 Reference value :  1.17502e-05
 Reference value :  1.17502e-05
 Reference value :  1.17502e-05
 Reference value :  1.17502e-05
 Reference value :  1.17502e-05
 Reference value :  1.17503e-05
 Reference value :  1.17504e-05
 Reference value :  1.17506e-05
 Reference value :  1.17509e-05
 Reference value :  1.17516e-05
 Reference value :  1.17522e-05
 Reference value :  1.17528e-05
 Reference value :  1.17535e-05
 Reference value :  1.17544e-05
 Reference value :  1.17551e-05
 Reference value :  1.17559e-05
 Reference value :  1.17568e-05
 Reference value :  1.17577e-05
 Reference value :  1.17588e-05
 Reference value :  1.17608e-05
 Reference value :  1.17632e-05
 Reference value :  1.17663e-05
 Reference value :  1.17706e-05
 Reference value :  1.17772e-05
 Reference value :  1.17905e-05
 Reference value :  1.18171e-05
 Reference value :  1.18703e-05
 Reference value :  1.19766e-05
 Reference value :  1.20000e-05
 Reference value :  1.20000e-05
 Reference value :  1.20000e-05
 Reference value :  1.20001e-05
 Reference value :  1.20001e-05
 Reference value :  1.20001e-05
 Reference value :  1.20001e-05
 Reference value :  1.20001e-05
 Reference value :  1.20002e-05
 Reference value :  1.20002e-05
 Reference value :  1.20004e-05
 Reference value :  1.20006e-05
 Reference value :  1.20009e-05
 Reference value :  1.20014e-05
 Reference value :  1.20020e-05
 Reference value :  1.20026e-05
 Reference value :  1.20033e-05
 Reference value :  1.20040e-05
 Reference value :  1.20050e-05
 Reference value :  1.20058e-05
 Reference value :  1.20068e-05
 Reference value :  1.20080e-05
 Reference value :  1.20093e-05
 Reference value :  1.20105e-05
 Reference value :  1.20117e-05
 Reference value :  1.20135e-05
 Reference value :  1.20149e-05
 Reference value :  1.20165e-05
 Reference value :  1.20180e-05
 Reference value :  1.20198e-05
 Reference value :  1.20234e-05
 Reference value :  1.20285e-05
 Reference value :  1.20387e-05
 Reference value :  1.20591e-05
 Reference value :  1.20999e-05
 Reference value :  1.21815e-05
 Reference value :  1.22501e-05
 Reference value :  1.22501e-05
 Reference value :  1.22501e-05
 Reference value :  1.22502e-05
 Reference value :  1.22502e-05
 Reference value :  1.22502e-05
 Reference value :  1.22502e-05
 Reference value :  1.22502e-05
 Reference value :  1.22502e-05
 Reference value :  1.22502e-05
 Reference value :  1.22502e-05
 Reference value :  1.22503e-05
 Reference value :  1.22504e-05
 Reference value :  1.22506e-05
 Reference value :  1.22509e-05
 Reference value :  1.22516e-05
 Reference value :  1.22522e-05
 Reference value :  1.22528e-05
 Reference value :  1.22535e-05
 Reference value :  1.22544e-05
 Reference value :  1.22551e-05
 Reference value :  1.22560e-05
 Reference value :  1.22567e-05
 Reference value :  1.22575e-05
 Reference value :  1.22585e-05
 Reference value :  1.22596e-05
 Reference value :  1.22608e-05
 Reference value :  1.22625e-05
 Reference value :  1.22645e-05
 Reference value :  1.22672e-05
 Reference value :  1.22707e-05
 Reference value :  1.22752e-05
 Reference value :  1.22843e-05
 Reference value :  1.22981e-05
 Reference value :  1.23256e-05
 Reference value :  1.23806e-05
 Reference value :  1.24907e-05
 Reference value :  1.25000e-05
 Reference value :  1.25000e-05
 Reference value :  1.25000e-05
 Reference value :  1.25001e-05
 Reference value :  1.25001e-05
 Reference value :  1.25001e-05
 Reference value :  1.25001e-05
 Reference value :  1.25001e-05
 Reference value :  1.25002e-05
 Reference value :  1.25002e-05
 Reference value :  1.25004e-05
 Reference value :  1.25006e-05
 Reference value :  1.25009e-05
 Reference value :  1.25014e-05
 Reference value :  1.25020e-05
 Reference value :  1.25026e-05
 Reference value :  1.25034e-05
 Reference value :  1.25041e-05
 Reference value :  1.25050e-05
 Reference value :  1.25057e-05
 Reference value :  1.25065e-05
 Reference value :  1.25072e-05
 Reference value :  1.25080e-05
 Reference value :  1.25089e-05
 Reference value :  1.25099e-05
 Reference value :  1.25112e-05
 Reference value :  1.25132e-05
 Reference value :  1.25146e-05
 Reference value :  1.25161e-05
 Reference value :  1.25177e-05
 Reference value :  1.25194e-05
 Reference value :  1.25210e-05
 Reference value :  1.25224e-05
 Reference value :  1.25238e-05
 Reference value :  1.25251e-05
 Reference value :  1.25266e-05
 Reference value :  1.25281e-05
 Reference value :  1.25297e-05
 Reference value :  1.25323e-05
 Reference value :  1.25352e-05
 Reference value :  1.25411e-05
 Reference value :  1.25500e-05
 Reference value :  1.25644e-05
 Reference value :  1.25774e-05
 Reference value :  1.25887e-05
 Reference value :  1.25941e-05
 Reference value :  1.25993e-05
 Reference value :  1.26049e-05
 Reference value :  1.26143e-05
 Reference value :  1.26253e-05
 Reference value :  1.26427e-05
 Reference value :  1.26674e-05
 Reference value :  1.27026e-05
 Reference value :  1.27488e-05
 Reference value :  1.27501e-05
 Reference value :  1.27501e-05
 Reference value :  1.27501e-05
 Reference value :  1.27502e-05
 Reference value :  1.27502e-05
 Reference value :  1.27502e-05
 Reference value :  1.27502e-05
 Reference value :  1.27502e-05
 Reference value :  1.27502e-05
 Reference value :  1.27502e-05
 Reference value :  1.27502e-05
 Reference value :  1.27503e-05
 Reference value :  1.27504e-05
 Reference value :  1.27506e-05
 Reference value :  1.27509e-05
 Reference value :  1.27516e-05
 Reference value :  1.27522e-05
 Reference value :  1.27528e-05
 Reference value :  1.27535e-05
 Reference value :  1.27544e-05
 Reference value :  1.27552e-05
 Reference value :  1.27560e-05
 Reference value :  1.27569e-05
 Reference value :  1.27578e-05
 Reference value :  1.27590e-05
 Reference value :  1.27608e-05
 Reference value :  1.27633e-05
 Reference value :  1.27664e-05
 Reference value :  1.27707e-05
 Reference value :  1.27775e-05
 Reference value :  1.27910e-05
 Reference value :  1.28173e-05
 Reference value :  1.28697e-05
 Reference value :  1.29747e-05
 Reference value :  1.30000e-05
 Reference value :  1.30000e-05
 Reference value :  1.30000e-05
 Reference value :  1.30001e-05
 Reference value :  1.30001e-05
 Reference value :  1.30001e-05
 Reference value :  1.30001e-05
 Reference value :  1.30001e-05
 Reference value :  1.30002e-05
 Reference value :  1.30002e-05
 Reference value :  1.30004e-05
 Reference value :  1.30006e-05
 Reference value :  1.30009e-05
 Reference value :  1.30014e-05
 Reference value :  1.30020e-05
 Reference value :  1.30026e-05
 Reference value :  1.30034e-05
 Reference value :  1.30041e-05
 Reference value :  1.30049e-05
 Reference value :  1.30058e-05
 Reference value :  1.30068e-05
 Reference value :  1.30079e-05
 Reference value :  1.30090e-05
 Reference value :  1.30102e-05
 Reference value :  1.30114e-05
 Reference value :  1.30131e-05
 Reference value :  1.30145e-05
 Reference value :  1.30160e-05
 Reference value :  1.30175e-05
 Reference value :  1.30193e-05
 Reference value :  1.30227e-05
 Reference value :  1.30277e-05
 Reference value :  1.30378e-05
 Reference value :  1.30578e-05
 Reference value :  1.30978e-05
 Reference value :  1.31778e-05
 Reference value :  1.32501e-05
 Reference value :  1.32501e-05
 Reference value :  1.32501e-05
 Reference value :  1.32502e-05
 Reference value :  1.32502e-05
 Reference value :  1.32502e-05
 Reference value :  1.32502e-05
 Reference value :  1.32502e-05
 Reference value :  1.32502e-05
 Reference value :  1.32502e-05
 Reference value :  1.32502e-05
 Reference value :  1.32503e-05
 Reference value :  1.32504e-05
 Reference value :  1.32506e-05
 Reference value :  1.32509e-05
 Reference value :  1.32515e-05
 Reference value :  1.32521e-05
 Reference value :  1.32528e-05
 Reference value :  1.32535e-05
 Reference value :  1.32544e-05
 Reference value :  1.32551e-05
 Reference value :  1.32560e-05
 Reference value :  1.32567e-05
 Reference value :  1.32575e-05
 Reference value :  1.32585e-05
 Reference value :  1.32596e-05
 Reference value :  1.32619e-05
 Reference value :  1.32642e-05
 Reference value :  1.32682e-05
 Reference value :  1.32726e-05
 Reference value :  1.32814e-05
 Reference value :  1.32989e-05
 Reference value :  1.33339e-05
 Reference value :  1.34039e-05
 Reference value :  1.35000e-05
 Reference value :  1.35000e-05
 Reference value :  1.35000e-05
 Reference value :  1.35001e-05
 Reference value :  1.35001e-05
 Reference value :  1.35001e-05
 Reference value :  1.35001e-05
 Reference value :  1.35001e-05
 Reference value :  1.35002e-05
 Reference value :  1.35002e-05
 Reference value :  1.35004e-05
 Reference value :  1.35006e-05
 Reference value :  1.35009e-05
 Reference value :  1.35014e-05
 Reference value :  1.35020e-05
 Reference value :  1.35026e-05
 Reference value :  1.35034e-05
 Reference value :  1.35041e-05
 Reference value :  1.35050e-05
 Reference value :  1.35057e-05
 Reference value :  1.35065e-05
 Reference value :  1.35073e-05
 Reference value :  1.35083e-05
 Reference value :  1.35092e-05
 Reference value :  1.35105e-05
 Reference value :  1.35121e-05
 Reference value :  1.35144e-05
 Reference value :  1.35178e-05
 Reference value :  1.35202e-05
 Reference value :  1.35223e-05
 Reference value :  1.35242e-05
 Reference value :  1.35262e-05
 Reference value :  1.35281e-05
 Reference value :  1.35303e-05
 Reference value :  1.35325e-05
 Reference value :  1.35354e-05
 Reference value :  1.35389e-05
 Reference value :  1.35438e-05
 Reference value :  1.35494e-05
 Reference value :  1.35558e-05
 Reference value :  1.35601e-05
 Reference value :  1.35650e-05
 Reference value :  1.35724e-05
 Reference value :  1.35792e-05
 Reference value :  1.35874e-05
 Reference value :  1.35943e-05
 Reference value :  1.36027e-05
 Reference value :  1.36174e-05
 Reference value :  1.36358e-05
 Reference value :  1.36656e-05
 Reference value :  1.37186e-05
 Reference value :  1.37501e-05
 Reference value :  1.37501e-05
 Reference value :  1.37501e-05
 Reference value :  1.37502e-05
 Reference value :  1.37502e-05
 Reference value :  1.37502e-05
 Reference value :  1.37502e-05
 Reference value :  1.37502e-05
 Reference value :  1.37502e-05
 Reference value :  1.37502e-05
 Reference value :  1.37502e-05
 Reference value :  1.37503e-05
 Reference value :  1.37504e-05
 Reference value :  1.37506e-05
 Reference value :  1.37509e-05
 Reference value :  1.37516e-05
 Reference value :  1.37522e-05
 Reference value :  1.37528e-05
 Reference value :  1.37535e-05
 Reference value :  1.37544e-05
 Reference value :  1.37551e-05
 Reference value :  1.37559e-05
 Reference value :  1.37568e-05
 Reference value :  1.37577e-05
 Reference value :  1.37588e-05
 Reference value :  1.37608e-05
 Reference value :  1.37632e-05
 Reference value :  1.37663e-05
 Reference value :  1.37706e-05
 Reference value :  1.37773e-05
 Reference value :  1.37906e-05
 Reference value :  1.38174e-05
 Reference value :  1.38709e-05
 Reference value :  1.39779e-05
 Reference value :  1.40000e-05
 Reference value :  1.40000e-05
 Reference value :  1.40000e-05
 Reference value :  1.40001e-05
 Reference value :  1.40001e-05
 Reference value :  1.40001e-05
 Reference value :  1.40001e-05
 Reference value :  1.40001e-05
 Reference value :  1.40002e-05
 Reference value :  1.40002e-05
 Reference value :  1.40004e-05
 Reference value :  1.40006e-05
 Reference value :  1.40009e-05
 Reference value :  1.40014e-05
 Reference value :  1.40020e-05
 Reference value :  1.40026e-05
 Reference value :  1.40033e-05
 Reference value :  1.40040e-05
 Reference value :  1.40049e-05
 Reference value :  1.40059e-05
 Reference value :  1.40068e-05
 Reference value :  1.40081e-05
 Reference value :  1.40093e-05
 Reference value :  1.40107e-05
 Reference value :  1.40120e-05
 Reference value :  1.40136e-05
 Reference value :  1.40153e-05
 Reference value :  1.40171e-05
 Reference value :  1.40192e-05
 Reference value :  1.40227e-05
 Reference value :  1.40278e-05
 Reference value :  1.40371e-05
 Reference value :  1.40542e-05
 Reference value :  1.40850e-05
 Reference value :  1.41450e-05
 Reference value :  1.42501e-05
 Reference value :  1.42501e-05
 Reference value :  1.42501e-05
 Reference value :  1.42502e-05
 Reference value :  1.42502e-05
 Reference value :  1.42502e-05
 Reference value :  1.42502e-05
 Reference value :  1.42502e-05
 Reference value :  1.42502e-05
 Reference value :  1.42502e-05
 Reference value :  1.42502e-05
 Reference value :  1.42503e-05
 Reference value :  1.42504e-05
 Reference value :  1.42506e-05
 Reference value :  1.42509e-05
 Reference value :  1.42516e-05
 Reference value :  1.42522e-05
 Reference value :  1.42528e-05
 Reference value :  1.42535e-05
 Reference value :  1.42544e-05
 Reference value :  1.42551e-05
 Reference value :  1.42560e-05
 Reference value :  1.42567e-05
 Reference value :  1.42575e-05
 Reference value :  1.42585e-05
 Reference value :  1.42596e-05
 Reference value :  1.42607e-05
 Reference value :  1.42624e-05
 Reference value :  1.42642e-05
 Reference value :  1.42671e-05
 Reference value :  1.42704e-05
 Reference value :  1.42750e-05
 Reference value :  1.42841e-05
 Reference value :  1.42960e-05
 Reference value :  1.43193e-05
 Reference value :  1.43639e-05
 Reference value :  1.44502e-05
 Reference value :  1.45000e-05
 Reference value :  1.45000e-05
 Reference value :  1.45000e-05
 Reference value :  1.45001e-05
 Reference value :  1.45001e-05
 Reference value :  1.45001e-05
 Reference value :  1.45001e-05
 Reference value :  1.45001e-05
 Reference value :  1.45002e-05
 Reference value :  1.45002e-05
 Reference value :  1.45004e-05
 Reference value :  1.45006e-05
 Reference value :  1.45009e-05
 Reference value :  1.45014e-05
 Reference value :  1.45020e-05
 Reference value :  1.45026e-05
 Reference value :  1.45034e-05
 Reference value :  1.45041e-05
 Reference value :  1.45050e-05
 Reference value :  1.45057e-05
 Reference value :  1.45065e-05
 Reference value :  1.45072e-05
 Reference value :  1.45081e-05
 Reference value :  1.45090e-05
 Reference value :  1.45100e-05
 Reference value :  1.45116e-05
 Reference value :  1.45135e-05
 Reference value :  1.45149e-05
 Reference value :  1.45164e-05
 Reference value :  1.45181e-05
 Reference value :  1.45200e-05
 Reference value :  1.45219e-05
 Reference value :  1.45235e-05
 Reference value :  1.45251e-05
 Reference value :  1.45266e-05
 Reference value :  1.45281e-05
 Reference value :  1.45299e-05
 Reference value :  1.45327e-05
 Reference value :  1.45352e-05
 Reference value :  1.45399e-05
 Reference value :  1.45464e-05
 Reference value :  1.45528e-05
 Reference value :  1.45585e-05
 Reference value :  1.45663e-05
 Reference value :  1.45788e-05
 Reference value :  1.45946e-05
 Reference value :  1.46107e-05
 Reference value :  1.46330e-05
 Reference value :  1.46689e-05
 Reference value :  1.46986e-05
 Reference value :  1.47268e-05
 Reference value :  1.47501e-05
 Reference value :  1.47501e-05
 Reference value :  1.47501e-05
 Reference value :  1.47502e-05
 Reference value :  1.47502e-05
 Reference value :  1.47502e-05
 Reference value :  1.47502e-05
 Reference value :  1.47502e-05
 Reference value :  1.47502e-05
 Reference value :  1.47502e-05
 Reference value :  1.47502e-05
 Reference value :  1.47503e-05
 Reference value :  1.47504e-05
 Reference value :  1.47506e-05
 Reference value :  1.47509e-05
 Reference value :  1.47516e-05
 Reference value :  1.47522e-05
 Reference value :  1.47528e-05
 Reference value :  1.47535e-05
 Reference value :  1.47544e-05
 Reference value :  1.47551e-05
 Reference value :  1.47559e-05
 Reference value :  1.47568e-05
 Reference value :  1.47577e-05
 Reference value :  1.47588e-05
 Reference value :  1.47607e-05
 Reference value :  1.47632e-05
 Reference value :  1.47661e-05
 Reference value :  1.47705e-05
 Reference value :  1.47768e-05
 Reference value :  1.47893e-05
 Reference value :  1.48145e-05
 Reference value :  1.48647e-05
 Reference value :  1.49652e-05
 Reference value :  1.50000e-05
 Reference value :  1.50000e-05
 Reference value :  1.50000e-05
 Reference value :  1.50001e-05
 Reference value :  1.50001e-05
 Reference value :  1.50001e-05
 Reference value :  1.50001e-05
 Reference value :  1.50001e-05
 Reference value :  1.50002e-05
 Reference value :  1.50002e-05
 Reference value :  1.50004e-05
 Reference value :  1.50006e-05
 Reference value :  1.50009e-05
 Reference value :  1.50014e-05
 Reference value :  1.50020e-05
 Reference value :  1.50026e-05
 Reference value :  1.50033e-05
 Reference value :  1.50040e-05
 Reference value :  1.50049e-05
 Reference value :  1.50058e-05
 Reference value :  1.50068e-05
 Reference value :  1.50080e-05
 Reference value :  1.50093e-05
 Reference value :  1.50105e-05
 Reference value :  1.50118e-05
 Reference value :  1.50136e-05
 Reference value :  1.50152e-05
 Reference value :  1.50169e-05
 Reference value :  1.50189e-05
 Reference value :  1.50211e-05
 Reference value :  1.50248e-05
 Reference value :  1.50303e-05
 Reference value :  1.50397e-05
 Reference value :  1.50568e-05
 Reference value :  1.50867e-05
 Reference value :  1.51430e-05
 Reference value :  1.52460e-05
 Reference value :  1.52501e-05
 Reference value :  1.52501e-05
 Reference value :  1.52501e-05
 Reference value :  1.52502e-05
 Reference value :  1.52502e-05
 Reference value :  1.52502e-05
 Reference value :  1.52502e-05
 Reference value :  1.52502e-05
 Reference value :  1.52502e-05
 Reference value :  1.52502e-05
 Reference value :  1.52502e-05
 Reference value :  1.52503e-05
 Reference value :  1.52504e-05
 Reference value :  1.52506e-05
 Reference value :  1.52509e-05
 Reference value :  1.52516e-05
 Reference value :  1.52522e-05
 Reference value :  1.52528e-05
 Reference value :  1.52535e-05
 Reference value :  1.52544e-05
 Reference value :  1.52551e-05
 Reference value :  1.52560e-05
 Reference value :  1.52567e-05
 Reference value :  1.52574e-05
 Reference value :  1.52585e-05
 Reference value :  1.52596e-05
 Reference value :  1.52606e-05
 Reference value :  1.52624e-05
 Reference value :  1.52640e-05
 Reference value :  1.52671e-05
 Reference value :  1.52701e-05
 Reference value :  1.52749e-05
 Reference value :  1.52828e-05
 Reference value :  1.52932e-05
 Reference value :  1.53107e-05
 Reference value :  1.53428e-05
 Reference value :  1.53949e-05
 Reference value :  1.54888e-05
 Reference value :  1.55000e-05
 Reference value :  1.55002e-05
 Reference value :  1.55005e-05
 Reference value :  1.55007e-05
 Reference value :  1.55008e-05
 Reference value :  1.55011e-05
 Reference value :  1.55015e-05
 Reference value :  1.55021e-05
 Reference value :  1.55028e-05
 Reference value :  1.55035e-05
 Reference value :  1.55043e-05
 Reference value :  1.55051e-05
 Reference value :  1.55058e-05
 Reference value :  1.55066e-05
 Reference value :  1.55073e-05
 Reference value :  1.55081e-05
 Reference value :  1.55090e-05
 Reference value :  1.55101e-05
 Reference value :  1.55118e-05
 Reference value :  1.55138e-05
 Reference value :  1.55153e-05
 Reference value :  1.55169e-05
 Reference value :  1.55184e-05
 Reference value :  1.55202e-05
 Reference value :  1.55221e-05
 Reference value :  1.55237e-05
 Reference value :  1.55252e-05
 Reference value :  1.55268e-05
 Reference value :  1.55284e-05
 Reference value :  1.55303e-05
 Reference value :  1.55328e-05
 Reference value :  1.55356e-05
 Reference value :  1.55386e-05
 Reference value :  1.55419e-05
 Reference value :  1.55465e-05
 Reference value :  1.55527e-05
 Reference value :  1.55599e-05
 Reference value :  1.55675e-05
 Reference value :  1.55751e-05
 Reference value :  1.55819e-05
 Reference value :  1.55901e-05
 Reference value :  1.56052e-05
 Reference value :  1.56198e-05
 Reference value :  1.56379e-05
 Reference value :  1.56693e-05
 Reference value :  1.57321e-05
 Reference value :  1.57501e-05
 Reference value :  1.57501e-05
 Reference value :  1.57501e-05
 Reference value :  1.57502e-05
 Reference value :  1.57502e-05
[...]
 Reference value :  1.74266e-04
 Reference value :  1.74271e-04
 Reference value :  1.74277e-04
 Reference value :  1.74291e-04
 Reference value :  1.74317e-04
 Reference value :  1.74370e-04
 Reference value :  1.74475e-04
 Reference value :  1.74500e-04
 Reference value :  1.74500e-04
 Reference value :  1.74500e-04
 Reference value :  1.74500e-04
 Reference value :  1.74500e-04
 Reference value :  1.74500e-04
 Reference value :  1.74500e-04
 Reference value :  1.74500e-04
 Reference value :  1.74500e-04
 Reference value :  1.74500e-04
 Reference value :  1.74500e-04
 Reference value :  1.74501e-04
 Reference value :  1.74501e-04
 Reference value :  1.74501e-04
 Reference value :  1.74502e-04
 Reference value :  1.74503e-04
 Reference value :  1.74503e-04
 Reference value :  1.74504e-04
 Reference value :  1.74505e-04
 Reference value :  1.74506e-04
 Reference value :  1.74507e-04
 Reference value :  1.74508e-04
 Reference value :  1.74509e-04
 Reference value :  1.74510e-04
 Reference value :  1.74511e-04
 Reference value :  1.74513e-04
 Reference value :  1.74514e-04
 Reference value :  1.74516e-04
 Reference value :  1.74518e-04
 Reference value :  1.74519e-04
 Reference value :  1.74523e-04
 Reference value :  1.74528e-04
 Reference value :  1.74538e-04
 Reference value :  1.74558e-04
 Reference value :  1.74598e-04
 Reference value :  1.74678e-04
 Reference value :  1.74750e-04
 Reference value :  1.74750e-04
 Reference value :  1.74750e-04
 Reference value :  1.74750e-04
 Reference value :  1.74750e-04
 Reference value :  1.74750e-04
 Reference value :  1.74750e-04
 Reference value :  1.74750e-04
 Reference value :  1.74750e-04
 Reference value :  1.74750e-04
 Reference value :  1.74750e-04
 Reference value :  1.74750e-04
 Reference value :  1.74750e-04
 Reference value :  1.74751e-04
 Reference value :  1.74751e-04
 Reference value :  1.74752e-04
 Reference value :  1.74752e-04
 Reference value :  1.74753e-04
 Reference value :  1.74753e-04
 Reference value :  1.74754e-04
 Reference value :  1.74755e-04
 Reference value :  1.74756e-04
 Reference value :  1.74757e-04
 Reference value :  1.74758e-04
 Reference value :  1.74759e-04
 Reference value :  1.74760e-04
 Reference value :  1.74762e-04
 Reference value :  1.74764e-04
 Reference value :  1.74768e-04
 Reference value :  1.74773e-04
 Reference value :  1.74781e-04
 Reference value :  1.74799e-04
 Reference value :  1.74834e-04
 Reference value :  1.74904e-04
 Reference value :  1.75000e-04
 Reference value :  1.75000e-04
 Reference value :  1.75000e-04
 Reference value :  1.75000e-04
 Reference value :  1.75000e-04
 Reference value :  1.75000e-04
 Reference value :  1.75000e-04
 Reference value :  1.75000e-04
 Reference value :  1.75000e-04
 Reference value :  1.75000e-04
 Reference value :  1.75000e-04
 Reference value :  1.75001e-04
 Reference value :  1.75001e-04
 Reference value :  1.75001e-04
 Reference value :  1.75002e-04
 Reference value :  1.75003e-04
 Reference value :  1.75003e-04
 Reference value :  1.75004e-04
 Reference value :  1.75005e-04
 Reference value :  1.75006e-04
 Reference value :  1.75007e-04
 Reference value :  1.75007e-04
 Reference value :  1.75008e-04
 Reference value :  1.75009e-04
 Reference value :  1.75010e-04
 Reference value :  1.75012e-04
 Reference value :  1.75014e-04
 Reference value :  1.75018e-04
 Reference value :  1.75020e-04
 Reference value :  1.75022e-04
 Reference value :  1.75024e-04
 Reference value :  1.75026e-04
 Reference value :  1.75028e-04
 Reference value :  1.75030e-04
 Reference value :  1.75032e-04
 Reference value :  1.75035e-04
 Reference value :  1.75039e-04
 Reference value :  1.75044e-04
 Reference value :  1.75050e-04
 Reference value :  1.75057e-04
 Reference value :  1.75064e-04
 Reference value :  1.75070e-04
 Reference value :  1.75075e-04
 Reference value :  1.75082e-04
 Reference value :  1.75090e-04
 Reference value :  1.75098e-04
 Reference value :  1.75106e-04
 Reference value :  1.75114e-04
 Reference value :  1.75131e-04
 Reference value :  1.75149e-04
 Reference value :  1.75165e-04
 Reference value :  1.75184e-04
 Reference value :  1.75197e-04
 Reference value :  1.75209e-04
 Reference value :  1.75222e-04
 Reference value :  1.75239e-04
 Reference value :  1.75250e-04
 Reference value :  1.75250e-04
 Reference value :  1.75250e-04
 Reference value :  1.75250e-04
 Reference value :  1.75250e-04
 Reference value :  1.75250e-04
 Reference value :  1.75250e-04
 Reference value :  1.75250e-04
 Reference value :  1.75250e-04
 Reference value :  1.75250e-04
 Reference value :  1.75250e-04
 Reference value :  1.75250e-04
 Reference value :  1.75250e-04
 Reference value :  1.75251e-04
 Reference value :  1.75251e-04
 Reference value :  1.75252e-04
 Reference value :  1.75252e-04
 Reference value :  1.75253e-04
 Reference value :  1.75253e-04
 Reference value :  1.75254e-04
 Reference value :  1.75255e-04
 Reference value :  1.75256e-04
 Reference value :  1.75257e-04
 Reference value :  1.75258e-04
 Reference value :  1.75259e-04
 Reference value :  1.75261e-04
 Reference value :  1.75263e-04
 Reference value :  1.75266e-04
 Reference value :  1.75271e-04
 Reference value :  1.75278e-04
 Reference value :  1.75292e-04
 Reference value :  1.75318e-04
 Reference value :  1.75370e-04
 Reference value :  1.75475e-04
 Reference value :  1.75500e-04
 Reference value :  1.75500e-04
 Reference value :  1.75500e-04
 Reference value :  1.75500e-04
 Reference value :  1.75500e-04
 Reference value :  1.75500e-04
 Reference value :  1.75500e-04
 Reference value :  1.75500e-04
 Reference value :  1.75500e-04
 Reference value :  1.75500e-04
 Reference value :  1.75500e-04
 Reference value :  1.75501e-04
 Reference value :  1.75501e-04
 Reference value :  1.75501e-04
 Reference value :  1.75502e-04
 Reference value :  1.75503e-04
 Reference value :  1.75503e-04
 Reference value :  1.75504e-04
 Reference value :  1.75505e-04
 Reference value :  1.75506e-04
 Reference value :  1.75507e-04
 Reference value :  1.75508e-04
 Reference value :  1.75509e-04
 Reference value :  1.75511e-04
 Reference value :  1.75512e-04
 Reference value :  1.75513e-04
 Reference value :  1.75515e-04
 Reference value :  1.75517e-04
 Reference value :  1.75519e-04
 Reference value :  1.75521e-04
 Reference value :  1.75525e-04
 Reference value :  1.75531e-04
 Reference value :  1.75541e-04
 Reference value :  1.75560e-04
 Reference value :  1.75592e-04
 Reference value :  1.75651e-04
 Reference value :  1.75750e-04
 Reference value :  1.75750e-04
 Reference value :  1.75750e-04
 Reference value :  1.75750e-04
 Reference value :  1.75750e-04
 Reference value :  1.75750e-04
 Reference value :  1.75750e-04
 Reference value :  1.75750e-04
 Reference value :  1.75750e-04
 Reference value :  1.75750e-04
 Reference value :  1.75750e-04
 Reference value :  1.75750e-04
 Reference value :  1.75750e-04
 Reference value :  1.75751e-04
 Reference value :  1.75751e-04
 Reference value :  1.75752e-04
 Reference value :  1.75752e-04
 Reference value :  1.75753e-04
 Reference value :  1.75753e-04
 Reference value :  1.75754e-04
 Reference value :  1.75755e-04
 Reference value :  1.75756e-04
 Reference value :  1.75757e-04
 Reference value :  1.75757e-04
 Reference value :  1.75759e-04
 Reference value :  1.75760e-04
 Reference value :  1.75762e-04
 Reference value :  1.75764e-04
 Reference value :  1.75768e-04
 Reference value :  1.75773e-04
 Reference value :  1.75781e-04
 Reference value :  1.75799e-04
 Reference value :  1.75834e-04
 Reference value :  1.75903e-04
 Reference value :  1.76000e-04
 Reference value :  1.76000e-04
 Reference value :  1.76000e-04
 Reference value :  1.76000e-04
 Reference value :  1.76000e-04
 Reference value :  1.76000e-04
 Reference value :  1.76000e-04
 Reference value :  1.76000e-04
 Reference value :  1.76000e-04
 Reference value :  1.76000e-04
 Reference value :  1.76000e-04
 Reference value :  1.76001e-04
 Reference value :  1.76001e-04
 Reference value :  1.76001e-04
 Reference value :  1.76002e-04
 Reference value :  1.76003e-04
 Reference value :  1.76003e-04
 Reference value :  1.76004e-04
 Reference value :  1.76005e-04
 Reference value :  1.76006e-04
 Reference value :  1.76007e-04
 Reference value :  1.76007e-04
 Reference value :  1.76008e-04
 Reference value :  1.76009e-04
 Reference value :  1.76010e-04
 Reference value :  1.76012e-04
 Reference value :  1.76014e-04
 Reference value :  1.76017e-04
 Reference value :  1.76019e-04
 Reference value :  1.76021e-04
 Reference value :  1.76023e-04
 Reference value :  1.76025e-04
 Reference value :  1.76026e-04
 Reference value :  1.76027e-04
 Reference value :  1.76029e-04
 Reference value :  1.76031e-04
 Reference value :  1.76034e-04
 Reference value :  1.76037e-04
 Reference value :  1.76043e-04
 Reference value :  1.76048e-04
 Reference value :  1.76053e-04
 Reference value :  1.76058e-04
 Reference value :  1.76062e-04
 Reference value :  1.76067e-04
 Reference value :  1.76072e-04
 Reference value :  1.76078e-04
 Reference value :  1.76087e-04
 Reference value :  1.76095e-04
 Reference value :  1.76103e-04
 Reference value :  1.76112e-04
 Reference value :  1.76127e-04
 Reference value :  1.76151e-04
 Reference value :  1.76186e-04
 Reference value :  1.76250e-04
 Reference value :  1.76250e-04
 Reference value :  1.76250e-04
 Reference value :  1.76250e-04
 Reference value :  1.76250e-04
 Reference value :  1.76250e-04
 Reference value :  1.76250e-04
 Reference value :  1.76250e-04
 Reference value :  1.76250e-04
 Reference value :  1.76250e-04
 Reference value :  1.76250e-04
 Reference value :  1.76250e-04
 Reference value :  1.76250e-04
 Reference value :  1.76251e-04
 Reference value :  1.76251e-04
 Reference value :  1.76252e-04
 Reference value :  1.76252e-04
 Reference value :  1.76253e-04
 Reference value :  1.76254e-04
 Reference value :  1.76254e-04
 Reference value :  1.76255e-04
 Reference value :  1.76256e-04
 Reference value :  1.76257e-04
 Reference value :  1.76258e-04
 Reference value :  1.76259e-04
 Reference value :  1.76261e-04
 Reference value :  1.76263e-04
 Reference value :  1.76266e-04
 Reference value :  1.76271e-04
 Reference value :  1.76277e-04
 Reference value :  1.76290e-04
 Reference value :  1.76316e-04
 Reference value :  1.76367e-04
 Reference value :  1.76470e-04
 Reference value :  1.76500e-04
 Reference value :  1.76500e-04
 Reference value :  1.76500e-04
 Reference value :  1.76500e-04
 Reference value :  1.76500e-04
 Reference value :  1.76500e-04
 Reference value :  1.76500e-04
 Reference value :  1.76500e-04
 Reference value :  1.76500e-04
 Reference value :  1.76500e-04
 Reference value :  1.76500e-04
 Reference value :  1.76501e-04
 Reference value :  1.76501e-04
 Reference value :  1.76501e-04
 Reference value :  1.76502e-04
 Reference value :  1.76503e-04
 Reference value :  1.76503e-04
 Reference value :  1.76504e-04
 Reference value :  1.76505e-04
 Reference value :  1.76506e-04
 Reference value :  1.76507e-04
 Reference value :  1.76508e-04
 Reference value :  1.76509e-04
 Reference value :  1.76511e-04
 Reference value :  1.76512e-04
 Reference value :  1.76514e-04
 Reference value :  1.76515e-04
 Reference value :  1.76517e-04
 Reference value :  1.76519e-04
 Reference value :  1.76521e-04
 Reference value :  1.76525e-04
 Reference value :  1.76530e-04
 Reference value :  1.76539e-04
 Reference value :  1.76556e-04
 Reference value :  1.76586e-04
 Reference value :  1.76642e-04
 Reference value :  1.76744e-04
 Reference value :  1.76750e-04
 Reference value :  1.76750e-04
 Reference value :  1.76750e-04
 Reference value :  1.76750e-04
 Reference value :  1.76750e-04
 Reference value :  1.76750e-04
 Reference value :  1.76750e-04
 Reference value :  1.76750e-04
 Reference value :  1.76750e-04
 Reference value :  1.76750e-04
 Reference value :  1.76750e-04
 Reference value :  1.76750e-04
 Reference value :  1.76750e-04
 Reference value :  1.76751e-04
 Reference value :  1.76751e-04
 Reference value :  1.76752e-04
 Reference value :  1.76752e-04
 Reference value :  1.76753e-04
 Reference value :  1.76754e-04
 Reference value :  1.76754e-04
 Reference value :  1.76755e-04
 Reference value :  1.76756e-04
 Reference value :  1.76757e-04
 Reference value :  1.76757e-04
 Reference value :  1.76758e-04
 Reference value :  1.76760e-04
 Reference value :  1.76761e-04
 Reference value :  1.76762e-04
 Reference value :  1.76764e-04
 Reference value :  1.76767e-04
 Reference value :  1.76770e-04
 Reference value :  1.76775e-04
 Reference value :  1.76784e-04
 Reference value :  1.76796e-04
 Reference value :  1.76819e-04
 Reference value :  1.76862e-04
 Reference value :  1.76947e-04
 Reference value :  1.77000e-04
 Reference value :  1.77000e-04
 Reference value :  1.77000e-04
 Reference value :  1.77000e-04
 Reference value :  1.77000e-04
 Reference value :  1.77000e-04
 Reference value :  1.77000e-04
 Reference value :  1.77000e-04
 Reference value :  1.77000e-04
 Reference value :  1.77000e-04
 Reference value :  1.77000e-04
 Reference value :  1.77001e-04
 Reference value :  1.77001e-04
 Reference value :  1.77001e-04
 Reference value :  1.77002e-04
 Reference value :  1.77003e-04
 Reference value :  1.77003e-04
 Reference value :  1.77004e-04
 Reference value :  1.77005e-04
 Reference value :  1.77006e-04
 Reference value :  1.77006e-04
 Reference value :  1.77007e-04
 Reference value :  1.77008e-04
 Reference value :  1.77009e-04
 Reference value :  1.77010e-04
 Reference value :  1.77011e-04
 Reference value :  1.77013e-04
 Reference value :  1.77015e-04
 Reference value :  1.77016e-04
 Reference value :  1.77018e-04
 Reference value :  1.77020e-04
 Reference value :  1.77022e-04
 Reference value :  1.77023e-04
 Reference value :  1.77024e-04
 Reference value :  1.77025e-04
 Reference value :  1.77027e-04
 Reference value :  1.77028e-04
 Reference value :  1.77030e-04
 Reference value :  1.77031e-04
 Reference value :  1.77033e-04
 Reference value :  1.77035e-04
 Reference value :  1.77038e-04
 Reference value :  1.77040e-04
 Reference value :  1.77045e-04
 Reference value :  1.77050e-04
 Reference value :  1.77059e-04
 Reference value :  1.77072e-04
 Reference value :  1.77099e-04
 Reference value :  1.77134e-04
 Reference value :  1.77190e-04
 Reference value :  1.77250e-04
 Reference value :  1.77250e-04
 Reference value :  1.77250e-04
 Reference value :  1.77250e-04
 Reference value :  1.77250e-04
 Reference value :  1.77250e-04
 Reference value :  1.77250e-04
 Reference value :  1.77250e-04
 Reference value :  1.77250e-04
 Reference value :  1.77250e-04
 Reference value :  1.77250e-04
 Reference value :  1.77250e-04
 Reference value :  1.77250e-04
 Reference value :  1.77251e-04
 Reference value :  1.77251e-04
 Reference value :  1.77252e-04
 Reference value :  1.77252e-04
 Reference value :  1.77253e-04
 Reference value :  1.77254e-04
 Reference value :  1.77254e-04
 Reference value :  1.77255e-04
 Reference value :  1.77256e-04
 Reference value :  1.77257e-04
 Reference value :  1.77258e-04
 Reference value :  1.77259e-04
 Reference value :  1.77261e-04
 Reference value :  1.77263e-04
 Reference value :  1.77266e-04
 Reference value :  1.77271e-04
 Reference value :  1.77277e-04
 Reference value :  1.77291e-04
 Reference value :  1.77317e-04
 Reference value :  1.77370e-04
 Reference value :  1.77477e-04
 Reference value :  1.77500e-04
 Reference value :  1.77500e-04
 Reference value :  1.77500e-04
 Reference value :  1.77500e-04
 Reference value :  1.77500e-04
 Reference value :  1.77500e-04
 Reference value :  1.77500e-04
 Reference value :  1.77500e-04
 Reference value :  1.77500e-04
 Reference value :  1.77500e-04
 Reference value :  1.77500e-04
 Reference value :  1.77501e-04
 Reference value :  1.77501e-04
 Reference value :  1.77501e-04
 Reference value :  1.77502e-04
 Reference value :  1.77503e-04
 Reference value :  1.77503e-04
 Reference value :  1.77504e-04
 Reference value :  1.77505e-04
 Reference value :  1.77506e-04
 Reference value :  1.77507e-04
 Reference value :  1.77508e-04
 Reference value :  1.77509e-04
 Reference value :  1.77511e-04
 Reference value :  1.77512e-04
 Reference value :  1.77513e-04
 Reference value :  1.77515e-04
 Reference value :  1.77516e-04
 Reference value :  1.77518e-04
 Reference value :  1.77520e-04
 Reference value :  1.77523e-04
 Reference value :  1.77528e-04
 Reference value :  1.77538e-04
 Reference value :  1.77557e-04
 Reference value :  1.77594e-04
 Reference value :  1.77667e-04
 Reference value :  1.77750e-04
 Reference value :  1.77750e-04
 Reference value :  1.77750e-04
 Reference value :  1.77750e-04
 Reference value :  1.77750e-04
 Reference value :  1.77750e-04
 Reference value :  1.77750e-04
 Reference value :  1.77750e-04
 Reference value :  1.77750e-04
 Reference value :  1.77750e-04
 Reference value :  1.77750e-04
 Reference value :  1.77750e-04
 Reference value :  1.77750e-04
 Reference value :  1.77751e-04
 Reference value :  1.77751e-04
 Reference value :  1.77752e-04
 Reference value :  1.77752e-04
 Reference value :  1.77753e-04
 Reference value :  1.77754e-04
 Reference value :  1.77754e-04
 Reference value :  1.77755e-04
 Reference value :  1.77756e-04
 Reference value :  1.77757e-04
 Reference value :  1.77757e-04
 Reference value :  1.77758e-04
 Reference value :  1.77760e-04
 Reference value :  1.77762e-04
 Reference value :  1.77764e-04
 Reference value :  1.77768e-04
 Reference value :  1.77772e-04
 Reference value :  1.77781e-04
 Reference value :  1.77798e-04
 Reference value :  1.77833e-04
 Reference value :  1.77902e-04
 Reference value :  1.78000e-04
 Reference value :  1.78000e-04
 Reference value :  1.78000e-04
 Reference value :  1.78000e-04
 Reference value :  1.78000e-04
 Reference value :  1.78000e-04
 Reference value :  1.78000e-04
 Reference value :  1.78000e-04
 Reference value :  1.78000e-04
 Reference value :  1.78000e-04
 Reference value :  1.78000e-04
 Reference value :  1.78001e-04
 Reference value :  1.78001e-04
 Reference value :  1.78001e-04
 Reference value :  1.78002e-04
 Reference value :  1.78003e-04
 Reference value :  1.78003e-04
 Reference value :  1.78004e-04
 Reference value :  1.78005e-04
 Reference value :  1.78006e-04
 Reference value :  1.78007e-04
 Reference value :  1.78007e-04
 Reference value :  1.78008e-04
 Reference value :  1.78009e-04
 Reference value :  1.78010e-04
 Reference value :  1.78012e-04
 Reference value :  1.78014e-04
 Reference value :  1.78017e-04
 Reference value :  1.78020e-04
 Reference value :  1.78023e-04
 Reference value :  1.78025e-04
 Reference value :  1.78028e-04
 Reference value :  1.78034e-04
 Reference value :  1.78042e-04
 Reference value :  1.78054e-04
 Reference value :  1.78077e-04
 Reference value :  1.78121e-04
 Reference value :  1.78210e-04
 Reference value :  1.78250e-04
 Reference value :  1.78250e-04
 Reference value :  1.78250e-04
 Reference value :  1.78250e-04
 Reference value :  1.78250e-04
 Reference value :  1.78250e-04
 Reference value :  1.78250e-04
 Reference value :  1.78250e-04
 Reference value :  1.78250e-04
 Reference value :  1.78250e-04
 Reference value :  1.78250e-04
 Reference value :  1.78250e-04
 Reference value :  1.78250e-04
 Reference value :  1.78251e-04
 Reference value :  1.78251e-04
 Reference value :  1.78252e-04
 Reference value :  1.78252e-04
 Reference value :  1.78253e-04
 Reference value :  1.78254e-04
 Reference value :  1.78254e-04
 Reference value :  1.78255e-04
 Reference value :  1.78257e-04
 Reference value :  1.78258e-04
 Reference value :  1.78259e-04
 Reference value :  1.78262e-04
 Reference value :  1.78265e-04
 Reference value :  1.78269e-04
 Reference value :  1.78273e-04
 Reference value :  1.78283e-04
 Reference value :  1.78302e-04
 Reference value :  1.78340e-04
 Reference value :  1.78416e-04
 Reference value :  1.78500e-04
No. of Data Rows : 27528
ngspice-44 done
