
Note: Compatibility modes selected: hs a


Circuit: ** sch_path: /home/ece/cace/sar-adc-using-sky130-pdk/runs/run_2025-09-13_01-19-26/parameters/dnl/run_2/sar_output_dnl.sch

option SCALE: Scale is set to 1e-06 for instance and model parameters
option SCALE: Scale is set to 1e-06 for instance and model parameters
option SCALE: Scale is set to 1e-06 for instance and model parameters
option SCALE: Scale is set to 1e-06 for instance and model parameters
Doing analysis at TEMP = 27.000000 and TNOM = 27.000000

Using KLU as Direct Linear Solver
Operating point simulation skipped by 'uic',
  now using transient initial conditions.
 Reference value :  1.00000e-12
 Reference value :  1.08400e-12
 Reference value :  2.30420e-12
 Reference value :  6.47697e-12
 Reference value :  3.45113e-11
 Reference value :  1.05514e-10
 Reference value :  4.47370e-10
 Reference value :  1.85093e-09
 Reference value :  5.07323e-09
 Reference value :  6.75582e-09
 Reference value :  9.13613e-09
 Reference value :  1.15159e-08
 Reference value :  1.25888e-08
 Reference value :  1.44326e-08
 Reference value :  2.13326e-08
 Reference value :  3.26080e-08
 Reference value :  7.21219e-08
 Reference value :  1.16516e-07
 Reference value :  1.41565e-07
 Reference value :  1.62867e-07
 Reference value :  2.50100e-07
 Reference value :  2.50200e-07
 Reference value :  2.50254e-07
 Reference value :  2.50528e-07
 Reference value :  2.51270e-07
 Reference value :  2.52083e-07
 Reference value :  2.53200e-07
 Reference value :  2.54206e-07
 Reference value :  2.56177e-07
 Reference value :  2.63846e-07
 Reference value :  3.80867e-07
 Reference value :  5.00030e-07
 Reference value :  5.00108e-07
 Reference value :  5.00220e-07
 Reference value :  5.00827e-07
 Reference value :  5.01532e-07
 Reference value :  5.02818e-07
 Reference value :  5.04630e-07
 Reference value :  5.06443e-07
 Reference value :  5.08785e-07
 Reference value :  5.11229e-07
 Reference value :  5.13779e-07
 Reference value :  5.20636e-07
 Reference value :  5.81619e-07
 Reference value :  7.50130e-07
 Reference value :  7.50208e-07
 Reference value :  7.50448e-07
 Reference value :  7.51397e-07
 Reference value :  7.52990e-07
 Reference value :  7.53972e-07
 Reference value :  7.55028e-07
 Reference value :  7.56546e-07
 Reference value :  7.59545e-07
 Reference value :  7.67045e-07
 Reference value :  8.16522e-07
 Reference value :  1.00000e-06
 Reference value :  1.00007e-06
 Reference value :  1.00016e-06
 Reference value :  1.00052e-06
 Reference value :  1.00119e-06
 Reference value :  1.00201e-06
 Reference value :  1.00290e-06
 Reference value :  1.00389e-06
 Reference value :  1.00484e-06
 Reference value :  1.00663e-06
 Reference value :  1.00849e-06
 Reference value :  1.01018e-06
 Reference value :  1.01270e-06
 Reference value :  1.01441e-06
 Reference value :  1.01722e-06
 Reference value :  1.03740e-06
 Reference value :  1.25010e-06
 Reference value :  1.25021e-06
 Reference value :  1.25069e-06
 Reference value :  1.25186e-06
 Reference value :  1.25345e-06
 Reference value :  1.25746e-06
 Reference value :  1.31683e-06
 Reference value :  1.50007e-06
 Reference value :  1.50016e-06
 Reference value :  1.50083e-06
 Reference value :  1.50154e-06
 Reference value :  1.50282e-06
 Reference value :  1.50388e-06
 Reference value :  1.50536e-06
 Reference value :  1.50598e-06
 Reference value :  1.50749e-06
 Reference value :  1.51030e-06
 Reference value :  1.52259e-06
 Reference value :  1.65025e-06
 Reference value :  1.75017e-06
 Reference value :  1.75022e-06
 Reference value :  1.75045e-06
 Reference value :  1.75140e-06
 Reference value :  1.75299e-06
 Reference value :  1.75397e-06
 Reference value :  1.75580e-06
 Reference value :  1.75837e-06
 Reference value :  1.76108e-06
 Reference value :  1.79032e-06
 Reference value :  2.00001e-06
 Reference value :  2.00010e-06
 Reference value :  2.00016e-06
 Reference value :  2.00052e-06
 Reference value :  2.00158e-06
 Reference value :  2.00290e-06
 Reference value :  2.00484e-06
 Reference value :  2.00758e-06
 Reference value :  2.01017e-06
 Reference value :  2.01191e-06
 Reference value :  2.01441e-06
 Reference value :  2.01722e-06
 Reference value :  2.02366e-06
 Reference value :  2.06305e-06
 Reference value :  2.07739e-06
 Reference value :  2.09491e-06
 Reference value :  2.10576e-06
 Reference value :  2.11811e-06
 Reference value :  2.13286e-06
 Reference value :  2.16829e-06
 Reference value :  2.25011e-06
 Reference value :  2.25020e-06
 Reference value :  2.25032e-06
 Reference value :  2.25098e-06
 Reference value :  2.25140e-06
 Reference value :  2.25230e-06
 Reference value :  2.25345e-06
 Reference value :  2.25461e-06
 Reference value :  2.25742e-06
 Reference value :  2.27250e-06
 Reference value :  2.48431e-06
 Reference value :  2.50003e-06
 Reference value :  2.50010e-06
 Reference value :  2.50016e-06
 Reference value :  2.50052e-06
 Reference value :  2.50119e-06
 Reference value :  2.50158e-06
 Reference value :  2.50242e-06
 Reference value :  2.50290e-06
 Reference value :  2.50399e-06
 Reference value :  2.50552e-06
 Reference value :  2.50616e-06
 Reference value :  2.50771e-06
 Reference value :  2.51086e-06
 Reference value :  2.53006e-06
 Reference value :  2.75010e-06
 Reference value :  2.75017e-06
 Reference value :  2.75026e-06
 Reference value :  2.75069e-06
 Reference value :  2.75140e-06
 Reference value :  2.75299e-06
 Reference value :  2.75345e-06
 Reference value :  2.75448e-06
 Reference value :  2.75579e-06
 Reference value :  2.76362e-06
 Reference value :  2.80752e-06
 Reference value :  3.00000e-06
 Reference value :  3.00003e-06
 Reference value :  3.00012e-06
 Reference value :  3.00034e-06
 Reference value :  3.00083e-06
 Reference value :  3.00158e-06
 Reference value :  3.00242e-06
 Reference value :  3.00341e-06
 Reference value :  3.00500e-06
 Reference value :  3.00847e-06
 Reference value :  3.01120e-06
 Reference value :  3.01428e-06
 Reference value :  3.01738e-06
 Reference value :  3.02880e-06
 Reference value :  3.06798e-06
 Reference value :  3.08568e-06
 Reference value :  3.11450e-06
 Reference value :  3.13364e-06
 Reference value :  3.16720e-06
 Reference value :  3.19741e-06
 Reference value :  3.21356e-06
 Reference value :  3.23779e-06
 Reference value :  3.25017e-06
 Reference value :  3.25026e-06
 Reference value :  3.25098e-06
 Reference value :  3.25230e-06
 Reference value :  3.25345e-06
 Reference value :  3.25461e-06
 Reference value :  3.25890e-06
 Reference value :  3.28689e-06
 Reference value :  3.50000e-06
 Reference value :  3.50010e-06
 Reference value :  3.50016e-06
 Reference value :  3.50052e-06
 Reference value :  3.50119e-06
 Reference value :  3.50201e-06
 Reference value :  3.50290e-06
 Reference value :  3.50399e-06
 Reference value :  3.50553e-06
 Reference value :  3.50616e-06
 Reference value :  3.50771e-06
 Reference value :  3.50956e-06
 Reference value :  3.51554e-06
 Reference value :  3.58420e-06
 Reference value :  3.75011e-06
 Reference value :  3.75020e-06
 Reference value :  3.75032e-06
 Reference value :  3.75098e-06
 Reference value :  3.75299e-06
 Reference value :  3.75344e-06
 Reference value :  3.75448e-06
 Reference value :  3.75580e-06
 Reference value :  3.76363e-06
 Reference value :  3.85796e-06
 Reference value :  4.00003e-06
 Reference value :  4.00011e-06
 Reference value :  4.00022e-06
 Reference value :  4.00052e-06
 Reference value :  4.00119e-06
 Reference value :  4.00201e-06
 Reference value :  4.00289e-06
 Reference value :  4.00396e-06
 Reference value :  4.00500e-06
 Reference value :  4.00709e-06
 Reference value :  4.00996e-06
 Reference value :  4.01120e-06
 Reference value :  4.01323e-06
 Reference value :  4.01524e-06
 Reference value :  4.01913e-06
 Reference value :  4.02878e-06
 Reference value :  4.04343e-06
 Reference value :  4.05107e-06
 Reference value :  4.06590e-06
 Reference value :  4.09738e-06
 Reference value :  4.25011e-06
 Reference value :  4.25021e-06
 Reference value :  4.25045e-06
 Reference value :  4.25140e-06
 Reference value :  4.25299e-06
 Reference value :  4.25394e-06
 Reference value :  4.25732e-06
 Reference value :  4.28575e-06
 Reference value :  4.50001e-06
 Reference value :  4.50012e-06
 Reference value :  4.50052e-06
 Reference value :  4.50154e-06
 Reference value :  4.50282e-06
 Reference value :  4.50464e-06
 Reference value :  4.50598e-06
 Reference value :  4.50749e-06
 Reference value :  4.51028e-06
 Reference value :  4.52228e-06
 Reference value :  4.64495e-06
 Reference value :  4.75017e-06
 Reference value :  4.75032e-06
 Reference value :  4.75098e-06
 Reference value :  4.75186e-06
 Reference value :  4.75299e-06
 Reference value :  4.75344e-06
 Reference value :  4.75448e-06
 Reference value :  4.75579e-06
 Reference value :  4.75751e-06
 Reference value :  4.75964e-06
 Reference value :  4.76365e-06
 Reference value :  4.77489e-06
 Reference value :  4.87982e-06
 Reference value :  5.00001e-06
 Reference value :  5.00010e-06
 Reference value :  5.00016e-06
 Reference value :  5.00052e-06
 Reference value :  5.00119e-06
 Reference value :  5.00158e-06
 Reference value :  5.00290e-06
 Reference value :  5.00390e-06
 Reference value :  5.00484e-06
 Reference value :  5.00664e-06
 Reference value :  5.00841e-06
 Reference value :  5.01015e-06
 Reference value :  5.01190e-06
 Reference value :  5.01439e-06
 Reference value :  5.01732e-06
 Reference value :  5.02936e-06
 Reference value :  5.06198e-06
 Reference value :  5.08809e-06
 Reference value :  5.19473e-06
 Reference value :  5.25013e-06
 Reference value :  5.25026e-06
 Reference value :  5.25098e-06
 Reference value :  5.25229e-06
 Reference value :  5.25344e-06
 Reference value :  5.25527e-06
 Reference value :  5.25897e-06
 Reference value :  5.28750e-06
 Reference value :  5.50000e-06
 Reference value :  5.50007e-06
 Reference value :  5.50016e-06
 Reference value :  5.50052e-06
 Reference value :  5.50154e-06
 Reference value :  5.50282e-06
 Reference value :  5.50464e-06
 Reference value :  5.50598e-06
 Reference value :  5.50749e-06
 Reference value :  5.50924e-06
 Reference value :  5.51143e-06
 Reference value :  5.52221e-06
 Reference value :  5.64372e-06
 Reference value :  5.75013e-06
 Reference value :  5.75021e-06
 Reference value :  5.75045e-06
 Reference value :  5.75140e-06
 Reference value :  5.75229e-06
 Reference value :  5.75344e-06
 Reference value :  5.75448e-06
 Reference value :  5.75579e-06
 Reference value :  5.75834e-06
 Reference value :  5.76732e-06
 Reference value :  5.99649e-06
 Reference value :  6.00007e-06
 Reference value :  6.00016e-06
 Reference value :  6.00052e-06
 Reference value :  6.00158e-06
 Reference value :  6.00290e-06
 Reference value :  6.00390e-06
 Reference value :  6.00484e-06
 Reference value :  6.00664e-06
 Reference value :  6.00850e-06
 Reference value :  6.01016e-06
 Reference value :  6.01188e-06
 Reference value :  6.01349e-06
 Reference value :  6.01524e-06
 Reference value :  6.01722e-06
 Reference value :  6.02038e-06
 Reference value :  6.02824e-06
 Reference value :  6.04745e-06
 Reference value :  6.06757e-06
 Reference value :  6.07827e-06
 Reference value :  6.08669e-06
 Reference value :  6.10570e-06
 Reference value :  6.17610e-06
 Reference value :  6.25013e-06
 Reference value :  6.25021e-06
 Reference value :  6.25045e-06
 Reference value :  6.25098e-06
 Reference value :  6.25186e-06
 Reference value :  6.25345e-06
 Reference value :  6.25523e-06
 Reference value :  6.26160e-06
 Reference value :  6.37216e-06
 Reference value :  6.50007e-06
 Reference value :  6.50022e-06
 Reference value :  6.50083e-06
 Reference value :  6.50242e-06
 Reference value :  6.50342e-06
 Reference value :  6.50474e-06
 Reference value :  6.50616e-06
 Reference value :  6.50771e-06
 Reference value :  6.50955e-06
 Reference value :  6.51549e-06
 Reference value :  6.54698e-06
 Reference value :  6.65190e-06
 Reference value :  6.75011e-06
 Reference value :  6.75017e-06
 Reference value :  6.75022e-06
 Reference value :  6.75045e-06
 Reference value :  6.75139e-06
 Reference value :  6.75299e-06
 Reference value :  6.75344e-06
 Reference value :  6.75397e-06
 Reference value :  6.75448e-06
 Reference value :  6.75660e-06
 Reference value :  6.76358e-06
 Reference value :  6.85696e-06
 Reference value :  7.00001e-06
 Reference value :  7.00010e-06
 Reference value :  7.00016e-06
 Reference value :  7.00034e-06
 Reference value :  7.00083e-06
 Reference value :  7.00119e-06
 Reference value :  7.00201e-06
 Reference value :  7.00289e-06
 Reference value :  7.00396e-06
 Reference value :  7.00500e-06
 Reference value :  7.00631e-06
 Reference value :  7.00847e-06
 Reference value :  7.01120e-06
 Reference value :  7.01223e-06
 Reference value :  7.01428e-06
 Reference value :  7.01524e-06
 Reference value :  7.01737e-06
 Reference value :  7.02392e-06
 Reference value :  7.03513e-06
 Reference value :  7.04387e-06
 Reference value :  7.05807e-06
 Reference value :  7.07717e-06
 Reference value :  7.13068e-06
 Reference value :  7.25010e-06
 Reference value :  7.25017e-06
 Reference value :  7.25026e-06
 Reference value :  7.25069e-06
 Reference value :  7.25140e-06
 Reference value :  7.25299e-06
 Reference value :  7.25394e-06
 Reference value :  7.25525e-06
 Reference value :  7.26142e-06
 Reference value :  7.36733e-06
 Reference value :  7.50003e-06
 Reference value :  7.50012e-06
 Reference value :  7.50034e-06
 Reference value :  7.50119e-06
 Reference value :  7.50235e-06
 Reference value :  7.50333e-06
 Reference value :  7.50536e-06
 Reference value :  7.50597e-06
 Reference value :  7.50749e-06
 Reference value :  7.51028e-06
 Reference value :  7.51669e-06
 Reference value :  7.57969e-06
 Reference value :  7.75013e-06
 Reference value :  7.75021e-06
 Reference value :  7.75045e-06
 Reference value :  7.75139e-06
 Reference value :  7.75229e-06
 Reference value :  7.75344e-06
 Reference value :  7.75447e-06
 Reference value :  7.75579e-06
 Reference value :  7.75749e-06
 Reference value :  7.76103e-06
 Reference value :  7.81916e-06
 Reference value :  8.00003e-06
 Reference value :  8.00016e-06
 Reference value :  8.00052e-06
 Reference value :  8.00158e-06
 Reference value :  8.00290e-06
 Reference value :  8.00440e-06
 Reference value :  8.00592e-06
 Reference value :  8.00902e-06
 Reference value :  8.01410e-06
 Reference value :  8.03747e-06
 Reference value :  8.18309e-06
 Reference value :  8.25010e-06
 Reference value :  8.25020e-06
 Reference value :  8.25032e-06
 Reference value :  8.25099e-06
 Reference value :  8.25186e-06
 Reference value :  8.25298e-06
 Reference value :  8.25535e-06
 Reference value :  8.26192e-06
 Reference value :  8.37178e-06
 Reference value :  8.50000e-06
 Reference value :  8.50000e-06
 Reference value :  8.50002e-06
 Reference value :  8.50011e-06
 Reference value :  8.50027e-06
 Reference value :  8.50115e-06
 Reference value :  8.50243e-06
 Reference value :  8.50401e-06
 Reference value :  8.50495e-06
 Reference value :  8.51197e-06
 Reference value :  8.52238e-06
 Reference value :  8.52623e-06
 Reference value :  8.53135e-06
 Reference value :  8.53462e-06
 Reference value :  8.54011e-06
 Reference value :  8.54772e-06
 Reference value :  8.56188e-06
 Reference value :  8.60540e-06
 Reference value :  8.67136e-06
 Reference value :  8.71388e-06
 Reference value :  8.73321e-06
 Reference value :  8.74642e-06
 Reference value :  8.75017e-06
 Reference value :  8.75026e-06
 Reference value :  8.75069e-06
 Reference value :  8.75139e-06
 Reference value :  8.75297e-06
 Reference value :  8.75391e-06
 Reference value :  8.75591e-06
 Reference value :  8.76475e-06
 Reference value :  8.86480e-06
 Reference value :  9.00003e-06
 Reference value :  9.00012e-06
 Reference value :  9.00034e-06
 Reference value :  9.00083e-06
 Reference value :  9.00154e-06
 Reference value :  9.00281e-06
 Reference value :  9.00462e-06
 Reference value :  9.00643e-06
 Reference value :  9.00878e-06
 Reference value :  9.01121e-06
 Reference value :  9.01370e-06
 Reference value :  9.01720e-06
 Reference value :  9.04873e-06
 Reference value :  9.25011e-06
 Reference value :  9.25020e-06
 Reference value :  9.25032e-06
 Reference value :  9.25098e-06
 Reference value :  9.25186e-06
 Reference value :  9.25298e-06
 Reference value :  9.25396e-06
 Reference value :  9.25500e-06
 Reference value :  9.25655e-06
 Reference value :  9.25960e-06
 Reference value :  9.27292e-06
 Reference value :  9.43414e-06
 Reference value :  9.50003e-06
 Reference value :  9.50011e-06
 Reference value :  9.50034e-06
 Reference value :  9.50119e-06
 Reference value :  9.50201e-06
 Reference value :  9.50290e-06
 Reference value :  9.50390e-06
 Reference value :  9.50484e-06
 Reference value :  9.50664e-06
 Reference value :  9.50841e-06
 Reference value :  9.51015e-06
 Reference value :  9.51192e-06
 Reference value :  9.51359e-06
 Reference value :  9.51642e-06
 Reference value :  9.52106e-06
 Reference value :  9.56456e-06
 Reference value :  9.73152e-06
 Reference value :  9.75017e-06
 Reference value :  9.75032e-06
 Reference value :  9.75140e-06
 Reference value :  9.75299e-06
 Reference value :  9.75396e-06
 Reference value :  9.75749e-06
 Reference value :  9.77279e-06
 Reference value :  9.96724e-06
 Reference value :  1.00001e-05
 Reference value :  1.00002e-05
 Reference value :  1.00008e-05
 Reference value :  1.00019e-05
 Reference value :  1.00033e-05
 Reference value :  1.00054e-05
 Reference value :  1.00060e-05
 Reference value :  1.00075e-05
 Reference value :  1.00092e-05
 Reference value :  1.00114e-05
 Reference value :  1.00315e-05
 Reference value :  1.02501e-05
 Reference value :  1.02502e-05
 Reference value :  1.02503e-05
 Reference value :  1.02507e-05
 Reference value :  1.02519e-05
 Reference value :  1.02534e-05
 Reference value :  1.02545e-05
 Reference value :  1.02566e-05
 Reference value :  1.02610e-05
 Reference value :  1.04969e-05
 Reference value :  1.05001e-05
 Reference value :  1.05008e-05
 Reference value :  1.05024e-05
 Reference value :  1.05039e-05
 Reference value :  1.05053e-05
 Reference value :  1.05076e-05
 Reference value :  1.05093e-05
 Reference value :  1.05102e-05
 Reference value :  1.05119e-05
 Reference value :  1.05136e-05
 Reference value :  1.05155e-05
 Reference value :  1.05165e-05
 Reference value :  1.05214e-05
 Reference value :  1.05446e-05
 Reference value :  1.05711e-05
 Reference value :  1.05830e-05
 Reference value :  1.05912e-05
 Reference value :  1.06167e-05
 Reference value :  1.06690e-05
 Reference value :  1.07501e-05
 Reference value :  1.07502e-05
 Reference value :  1.07504e-05
 Reference value :  1.07514e-05
 Reference value :  1.07530e-05
 Reference value :  1.07540e-05
 Reference value :  1.07552e-05
 Reference value :  1.07616e-05
 Reference value :  1.08154e-05
 Reference value :  1.10000e-05
 Reference value :  1.10001e-05
 Reference value :  1.10002e-05
 Reference value :  1.10005e-05
 Reference value :  1.10012e-05
 Reference value :  1.10020e-05
 Reference value :  1.10034e-05
 Reference value :  1.10047e-05
 Reference value :  1.10062e-05
 Reference value :  1.10077e-05
 Reference value :  1.10109e-05
 Reference value :  1.10296e-05
 Reference value :  1.12501e-05
 Reference value :  1.12502e-05
 Reference value :  1.12503e-05
 Reference value :  1.12510e-05
 Reference value :  1.12514e-05
 Reference value :  1.12530e-05
 Reference value :  1.12540e-05
 Reference value :  1.12550e-05
 Reference value :  1.12566e-05
 Reference value :  1.12822e-05
 Reference value :  1.15000e-05
 Reference value :  1.15001e-05
 Reference value :  1.15001e-05
 Reference value :  1.15003e-05
 Reference value :  1.15012e-05
 Reference value :  1.15020e-05
 Reference value :  1.15029e-05
 Reference value :  1.15040e-05
 Reference value :  1.15050e-05
 Reference value :  1.15071e-05
 Reference value :  1.15112e-05
 Reference value :  1.15132e-05
 Reference value :  1.15152e-05
 Reference value :  1.15174e-05
 Reference value :  1.15286e-05
 Reference value :  1.15847e-05
 Reference value :  1.16131e-05
 Reference value :  1.16315e-05
 Reference value :  1.16621e-05
 Reference value :  1.16854e-05
 Reference value :  1.16915e-05
 Reference value :  1.17026e-05
 Reference value :  1.17289e-05
 Reference value :  1.17501e-05
 Reference value :  1.17502e-05
 Reference value :  1.17502e-05
 Reference value :  1.17504e-05
 Reference value :  1.17514e-05
 Reference value :  1.17530e-05
 Reference value :  1.17540e-05
 Reference value :  1.17552e-05
 Reference value :  1.17616e-05
 Reference value :  1.18154e-05
 Reference value :  1.19676e-05
 Reference value :  1.20000e-05
 Reference value :  1.20001e-05
 Reference value :  1.20003e-05
 Reference value :  1.20008e-05
 Reference value :  1.20016e-05
 Reference value :  1.20029e-05
 Reference value :  1.20047e-05
 Reference value :  1.20062e-05
 Reference value :  1.20077e-05
 Reference value :  1.20109e-05
 Reference value :  1.20471e-05
 Reference value :  1.22501e-05
 Reference value :  1.22502e-05
 Reference value :  1.22503e-05
 Reference value :  1.22510e-05
 Reference value :  1.22519e-05
 Reference value :  1.22530e-05
 Reference value :  1.22540e-05
 Reference value :  1.22550e-05
 Reference value :  1.22566e-05
 Reference value :  1.22636e-05
 Reference value :  1.23074e-05
 Reference value :  1.24574e-05
 Reference value :  1.25000e-05
 Reference value :  1.25001e-05
 Reference value :  1.25002e-05
 Reference value :  1.25005e-05
 Reference value :  1.25016e-05
 Reference value :  1.25024e-05
 Reference value :  1.25040e-05
 Reference value :  1.25055e-05
 Reference value :  1.25100e-05
 Reference value :  1.25122e-05
 Reference value :  1.25152e-05
 Reference value :  1.25240e-05
 Reference value :  1.25441e-05
 Reference value :  1.25574e-05
 Reference value :  1.25679e-05
 Reference value :  1.26012e-05
 Reference value :  1.27501e-05
 Reference value :  1.27502e-05
 Reference value :  1.27502e-05
 Reference value :  1.27504e-05
 Reference value :  1.27514e-05
 Reference value :  1.27530e-05
 Reference value :  1.27534e-05
 Reference value :  1.27546e-05
 Reference value :  1.27559e-05
 Reference value :  1.27615e-05
 Reference value :  1.27857e-05
 Reference value :  1.29798e-05
 Reference value :  1.30000e-05
 Reference value :  1.30001e-05
 Reference value :  1.30002e-05
 Reference value :  1.30005e-05
 Reference value :  1.30012e-05
 Reference value :  1.30015e-05
 Reference value :  1.30023e-05
 Reference value :  1.30028e-05
 Reference value :  1.30039e-05
 Reference value :  1.30060e-05
 Reference value :  1.30075e-05
 Reference value :  1.30103e-05
 Reference value :  1.30221e-05
 Reference value :  1.31426e-05
 Reference value :  1.32501e-05
 Reference value :  1.32502e-05
 Reference value :  1.32507e-05
 Reference value :  1.32514e-05
 Reference value :  1.32530e-05
 Reference value :  1.32540e-05
 Reference value :  1.32550e-05
 Reference value :  1.32558e-05
 Reference value :  1.32575e-05
 Reference value :  1.32596e-05
 Reference value :  1.32674e-05
 Reference value :  1.33198e-05
 Reference value :  1.35000e-05
 Reference value :  1.35001e-05
 Reference value :  1.35001e-05
 Reference value :  1.35003e-05
 Reference value :  1.35008e-05
 Reference value :  1.35016e-05
 Reference value :  1.35024e-05
 Reference value :  1.35034e-05
 Reference value :  1.35044e-05
 Reference value :  1.35053e-05
 Reference value :  1.35076e-05
 Reference value :  1.35093e-05
 Reference value :  1.35111e-05
 Reference value :  1.35127e-05
 Reference value :  1.35136e-05
 Reference value :  1.35153e-05
 Reference value :  1.35190e-05
 Reference value :  1.35298e-05
 Reference value :  1.35436e-05
 Reference value :  1.35582e-05
 Reference value :  1.35902e-05
 Reference value :  1.36642e-05
 Reference value :  1.37501e-05
 Reference value :  1.37502e-05
 Reference value :  1.37503e-05
 Reference value :  1.37510e-05
 Reference value :  1.37519e-05
 Reference value :  1.37530e-05
 Reference value :  1.37540e-05
 Reference value :  1.37575e-05
 Reference value :  1.37875e-05
 Reference value :  1.39934e-05
 Reference value :  1.40000e-05
 Reference value :  1.40001e-05
 Reference value :  1.40002e-05
 Reference value :  1.40005e-05
 Reference value :  1.40012e-05
 Reference value :  1.40015e-05
 Reference value :  1.40028e-05
 Reference value :  1.40039e-05
 Reference value :  1.40054e-05
 Reference value :  1.40066e-05
 Reference value :  1.40084e-05
 Reference value :  1.40103e-05
 Reference value :  1.40167e-05
 Reference value :  1.40790e-05
 Reference value :  1.42501e-05
 Reference value :  1.42502e-05
 Reference value :  1.42503e-05
 Reference value :  1.42510e-05
 Reference value :  1.42514e-05
 Reference value :  1.42523e-05
 Reference value :  1.42534e-05
 Reference value :  1.42545e-05
 Reference value :  1.42558e-05
 Reference value :  1.42583e-05
 Reference value :  1.42673e-05
 Reference value :  1.43781e-05
 Reference value :  1.45001e-05
 Reference value :  1.45002e-05
 Reference value :  1.45005e-05
 Reference value :  1.45016e-05
 Reference value :  1.45029e-05
 Reference value :  1.45044e-05
 Reference value :  1.45053e-05
 Reference value :  1.45066e-05
 Reference value :  1.45076e-05
 Reference value :  1.45093e-05
 Reference value :  1.45102e-05
 Reference value :  1.45119e-05
 Reference value :  1.45135e-05
 Reference value :  1.45153e-05
 Reference value :  1.45174e-05
 Reference value :  1.45207e-05
 Reference value :  1.45277e-05
 Reference value :  1.45374e-05
 Reference value :  1.45523e-05
 Reference value :  1.45571e-05
 Reference value :  1.45692e-05
 Reference value :  1.46007e-05
 Reference value :  1.47501e-05
 Reference value :  1.47502e-05
 Reference value :  1.47503e-05
 Reference value :  1.47507e-05
 Reference value :  1.47514e-05
 Reference value :  1.47530e-05
 Reference value :  1.47540e-05
 Reference value :  1.47552e-05
 Reference value :  1.47589e-05
 Reference value :  1.47867e-05
 Reference value :  1.50000e-05
 Reference value :  1.50001e-05
 Reference value :  1.50003e-05
 Reference value :  1.50012e-05
 Reference value :  1.50020e-05
 Reference value :  1.50029e-05
 Reference value :  1.50047e-05
 Reference value :  1.50062e-05
 Reference value :  1.50087e-05
 Reference value :  1.50155e-05
 Reference value :  1.50471e-05
 Reference value :  1.52501e-05
 Reference value :  1.52502e-05
 Reference value :  1.52503e-05
 Reference value :  1.52510e-05
 Reference value :  1.52519e-05
 Reference value :  1.52534e-05
 Reference value :  1.52550e-05
 Reference value :  1.52603e-05
 Reference value :  1.54557e-05
 Reference value :  1.55008e-05
 Reference value :  1.55030e-05
 Reference value :  1.55045e-05
 Reference value :  1.55056e-05
 Reference value :  1.55093e-05
 Reference value :  1.55120e-05
 Reference value :  1.55139e-05
 Reference value :  1.55159e-05
 Reference value :  1.55201e-05
 Reference value :  1.55316e-05
 Reference value :  1.55471e-05
 Reference value :  1.55589e-05
 Reference value :  1.55727e-05
 Reference value :  1.56130e-05
 Reference value :  1.57104e-05
 Reference value :  1.57502e-05
 Reference value :  1.57504e-05
 Reference value :  1.57514e-05
 Reference value :  1.57530e-05
 Reference value :  1.57539e-05
 Reference value :  1.57574e-05
 Reference value :  1.57849e-05
 Reference value :  1.60000e-05
 Reference value :  1.60001e-05
 Reference value :  1.60003e-05
 Reference value :  1.60008e-05
 Reference value :  1.60015e-05
 Reference value :  1.60028e-05
 Reference value :  1.60046e-05
 Reference value :  1.60060e-05
 Reference value :  1.60075e-05
 Reference value :  1.60092e-05
 Reference value :  1.60114e-05
 Reference value :  1.60221e-05
 Reference value :  1.61426e-05
 Reference value :  1.62502e-05
 Reference value :  1.62503e-05
 Reference value :  1.62507e-05
 Reference value :  1.62514e-05
 Reference value :  1.62530e-05
 Reference value :  1.62545e-05
 Reference value :  1.62566e-05
 Reference value :  1.62596e-05
 Reference value :  1.62748e-05
 Reference value :  1.64983e-05
 Reference value :  1.65001e-05
 Reference value :  1.65002e-05
 Reference value :  1.65005e-05
 Reference value :  1.65016e-05
 Reference value :  1.65029e-05
 Reference value :  1.65039e-05
 Reference value :  1.65053e-05
 Reference value :  1.65074e-05
 Reference value :  1.65099e-05
 Reference value :  1.65141e-05
 Reference value :  1.65264e-05
 Reference value :  1.65711e-05
 Reference value :  1.65825e-05
 Reference value :  1.66059e-05
 Reference value :  1.66414e-05
 Reference value :  1.67501e-05
 Reference value :  1.67502e-05
 Reference value :  1.67504e-05
 Reference value :  1.67514e-05
 Reference value :  1.67530e-05
 Reference value :  1.67545e-05
 Reference value :  1.67562e-05
 Reference value :  1.67592e-05
 Reference value :  1.67750e-05
 Reference value :  1.68217e-05
 Reference value :  1.70000e-05
 Reference value :  1.70000e-05
 Reference value :  1.70000e-05
 Reference value :  1.70001e-05
 Reference value :  1.70004e-05
 Reference value :  1.70016e-05
 Reference value :  1.70024e-05
 Reference value :  1.70035e-05
 Reference value :  1.70045e-05
 Reference value :  1.70090e-05
 Reference value :  1.70224e-05
 Reference value :  1.70262e-05
 Reference value :  1.70291e-05
 Reference value :  1.70333e-05
 Reference value :  1.70373e-05
 Reference value :  1.70465e-05
 Reference value :  1.70650e-05
 Reference value :  1.71163e-05
 Reference value :  1.71901e-05
 Reference value :  1.72072e-05
 Reference value :  1.72234e-05
 Reference value :  1.72476e-05
 Reference value :  1.72502e-05
 Reference value :  1.72507e-05
 Reference value :  1.72519e-05
 Reference value :  1.72534e-05
 Reference value :  1.72559e-05
 Reference value :  1.72842e-05
 Reference value :  1.75000e-05
 Reference value :  1.75001e-05
 Reference value :  1.75003e-05
 Reference value :  1.75012e-05
 Reference value :  1.75019e-05
 Reference value :  1.75028e-05
 Reference value :  1.75039e-05
 Reference value :  1.75064e-05
 Reference value :  1.75088e-05
 Reference value :  1.75112e-05
 Reference value :  1.75124e-05
 Reference value :  1.75154e-05
 Reference value :  1.75255e-05
 Reference value :  1.75792e-05
 Reference value :  1.77501e-05
 Reference value :  1.77502e-05
 Reference value :  1.77502e-05
 Reference value :  1.77504e-05
 Reference value :  1.77510e-05
 Reference value :  1.77519e-05
 Reference value :  1.77530e-05
 Reference value :  1.77540e-05
 Reference value :  1.77550e-05
 Reference value :  1.77566e-05
 Reference value :  1.77596e-05
 Reference value :  1.77728e-05
 Reference value :  1.79305e-05
 Reference value :  1.80012e-05
 Reference value :  1.80048e-05
 Reference value :  1.80071e-05
 Reference value :  1.80103e-05
 Reference value :  1.80135e-05
 Reference value :  1.80166e-05
 Reference value :  1.80285e-05
 Reference value :  1.81095e-05
 Reference value :  1.82501e-05
 Reference value :  1.82502e-05
 Reference value :  1.82503e-05
 Reference value :  1.82507e-05
 Reference value :  1.82514e-05
 Reference value :  1.82523e-05
 Reference value :  1.82533e-05
 Reference value :  1.82543e-05
 Reference value :  1.82567e-05
 Reference value :  1.82631e-05
 Reference value :  1.83506e-05
 Reference value :  1.85000e-05
 Reference value :  1.85001e-05
 Reference value :  1.85003e-05
 Reference value :  1.85012e-05
 Reference value :  1.85019e-05
 Reference value :  1.85028e-05
 Reference value :  1.85046e-05
 Reference value :  1.85060e-05
 Reference value :  1.85075e-05
 Reference value :  1.85103e-05
 Reference value :  1.85222e-05
 Reference value :  1.86428e-05
 Reference value :  1.87501e-05
 Reference value :  1.87502e-05
 Reference value :  1.87503e-05
 Reference value :  1.87507e-05
 Reference value :  1.87514e-05
 Reference value :  1.87523e-05
 Reference value :  1.87534e-05
 Reference value :  1.87545e-05
 Reference value :  1.87558e-05
 Reference value :  1.87583e-05
 Reference value :  1.87636e-05
 Reference value :  1.88181e-05
 Reference value :  1.90000e-05
 Reference value :  1.90001e-05
 Reference value :  1.90001e-05
 Reference value :  1.90003e-05
 Reference value :  1.90012e-05
 Reference value :  1.90020e-05
 Reference value :  1.90029e-05
 Reference value :  1.90039e-05
 Reference value :  1.90048e-05
 Reference value :  1.90066e-05
 Reference value :  1.90084e-05
 Reference value :  1.90111e-05
 Reference value :  1.90145e-05
 Reference value :  1.90194e-05
 Reference value :  1.90556e-05
 Reference value :  1.90814e-05
 Reference value :  1.90970e-05
 Reference value :  1.91159e-05
 Reference value :  1.91698e-05
 Reference value :  1.92501e-05
 Reference value :  1.92502e-05
 Reference value :  1.92502e-05
 Reference value :  1.92503e-05
 Reference value :  1.92507e-05
 Reference value :  1.92514e-05
 Reference value :  1.92523e-05
 Reference value :  1.92535e-05
 Reference value :  1.92546e-05
 Reference value :  1.92560e-05
 Reference value :  1.92652e-05
 Reference value :  1.93728e-05
 Reference value :  1.95003e-05
 Reference value :  1.95013e-05
 Reference value :  1.95020e-05
 Reference value :  1.95034e-05
 Reference value :  1.95049e-05
 Reference value :  1.95066e-05
 Reference value :  1.95087e-05
 Reference value :  1.95110e-05
 Reference value :  1.95184e-05
 Reference value :  1.95940e-05
 Reference value :  1.97501e-05
 Reference value :  1.97502e-05
 Reference value :  1.97503e-05
 Reference value :  1.97504e-05
 Reference value :  1.97514e-05
 Reference value :  1.97523e-05
 Reference value :  1.97534e-05
 Reference value :  1.97550e-05
 Reference value :  1.97602e-05
 Reference value :  1.98562e-05
 Reference value :  2.00000e-05
 Reference value :  2.00001e-05
 Reference value :  2.00005e-05
 Reference value :  2.00016e-05
 Reference value :  2.00024e-05
 Reference value :  2.00034e-05
 Reference value :  2.00050e-05
 Reference value :  2.00071e-05
 Reference value :  2.00100e-05
 Reference value :  2.00122e-05
 Reference value :  2.00143e-05
 Reference value :  2.00163e-05
 Reference value :  2.00239e-05
 Reference value :  2.00672e-05
 Reference value :  2.00856e-05
 Reference value :  2.01146e-05
 Reference value :  2.01361e-05
 Reference value :  2.01708e-05
 Reference value :  2.01972e-05
 Reference value :  2.02182e-05
 Reference value :  2.02501e-05
 Reference value :  2.02502e-05
 Reference value :  2.02503e-05
 Reference value :  2.02507e-05
 Reference value :  2.02514e-05
 Reference value :  2.02530e-05
 Reference value :  2.02540e-05
 Reference value :  2.02552e-05
 Reference value :  2.02589e-05
 Reference value :  2.02866e-05
 Reference value :  2.04379e-05
 Reference value :  2.05011e-05
 Reference value :  2.05046e-05
 Reference value :  2.05066e-05
 Reference value :  2.05083e-05
 Reference value :  2.05103e-05
 Reference value :  2.05231e-05
 Reference value :  2.07025e-05
 Reference value :  2.07502e-05
 Reference value :  2.07503e-05
 Reference value :  2.07510e-05
 Reference value :  2.07519e-05
 Reference value :  2.07533e-05
 Reference value :  2.07543e-05
 Reference value :  2.07555e-05
 Reference value :  2.07624e-05
 Reference value :  2.09051e-05
 Reference value :  2.10001e-05
 Reference value :  2.10001e-05
 Reference value :  2.10002e-05
 Reference value :  2.10005e-05
 Reference value :  2.10012e-05
 Reference value :  2.10020e-05
 Reference value :  2.10029e-05
 Reference value :  2.10040e-05
 Reference value :  2.10050e-05
 Reference value :  2.10063e-05
 Reference value :  2.10085e-05
 Reference value :  2.10112e-05
 Reference value :  2.10132e-05
 Reference value :  2.10152e-05
 Reference value :  2.10174e-05
 Reference value :  2.10208e-05
 Reference value :  2.10289e-05
 Reference value :  2.10397e-05
 Reference value :  2.10453e-05
 Reference value :  2.10496e-05
 Reference value :  2.10594e-05
 Reference value :  2.10700e-05
 Reference value :  2.10906e-05
 Reference value :  2.11638e-05
 Reference value :  2.12501e-05
 Reference value :  2.12502e-05
 Reference value :  2.12503e-05
 Reference value :  2.12507e-05
 Reference value :  2.12514e-05
 Reference value :  2.12530e-05
 Reference value :  2.12539e-05
 Reference value :  2.12559e-05
 Reference value :  2.12614e-05
 Reference value :  2.13126e-05
 Reference value :  2.15000e-05
 Reference value :  2.15001e-05
 Reference value :  2.15002e-05
 Reference value :  2.15003e-05
 Reference value :  2.15008e-05
 Reference value :  2.15015e-05
 Reference value :  2.15023e-05
 Reference value :  2.15028e-05
 Reference value :  2.15039e-05
 Reference value :  2.15054e-05
 Reference value :  2.15060e-05
 Reference value :  2.15075e-05
 Reference value :  2.15103e-05
 Reference value :  2.15222e-05
 Reference value :  2.16434e-05
 Reference value :  2.17501e-05
 Reference value :  2.17502e-05
 Reference value :  2.17504e-05
 Reference value :  2.17514e-05
 Reference value :  2.17523e-05
 Reference value :  2.17534e-05
 Reference value :  2.17545e-05
 Reference value :  2.17558e-05
 Reference value :  2.17584e-05
 Reference value :  2.17636e-05
 Reference value :  2.18197e-05
 Reference value :  2.20000e-05
 Reference value :  2.20002e-05
 Reference value :  2.20005e-05
 Reference value :  2.20012e-05
 Reference value :  2.20020e-05
 Reference value :  2.20029e-05
 Reference value :  2.20039e-05
 Reference value :  2.20048e-05
 Reference value :  2.20066e-05
 Reference value :  2.20084e-05
 Reference value :  2.20104e-05
 Reference value :  2.20121e-05
 Reference value :  2.20136e-05
 Reference value :  2.20164e-05
 Reference value :  2.20254e-05
 Reference value :  2.20489e-05
 Reference value :  2.20675e-05
 Reference value :  2.21115e-05
 Reference value :  2.21437e-05
 Reference value :  2.22078e-05
 Reference value :  2.22501e-05
 Reference value :  2.22502e-05
 Reference value :  2.22502e-05
 Reference value :  2.22504e-05
 Reference value :  2.22510e-05
 Reference value :  2.22514e-05
 Reference value :  2.22523e-05
 Reference value :  2.22534e-05
 Reference value :  2.22546e-05
 Reference value :  2.22560e-05
 Reference value :  2.22618e-05
 Reference value :  2.23172e-05
 Reference value :  2.25000e-05
 Reference value :  2.25001e-05
 Reference value :  2.25001e-05
 Reference value :  2.25002e-05
 Reference value :  2.25005e-05
 Reference value :  2.25012e-05
 Reference value :  2.25015e-05
 Reference value :  2.25023e-05
 Reference value :  2.25028e-05
 Reference value :  2.25039e-05
 Reference value :  2.25054e-05
 Reference value :  2.25060e-05
 Reference value :  2.25075e-05
 Reference value :  2.25092e-05
 Reference value :  2.25114e-05
 Reference value :  2.25315e-05
 Reference value :  2.26418e-05
 Reference value :  2.27501e-05
 Reference value :  2.27502e-05
 Reference value :  2.27503e-05
 Reference value :  2.27507e-05
 Reference value :  2.27514e-05
 Reference value :  2.27523e-05
 Reference value :  2.27534e-05
 Reference value :  2.27550e-05
 Reference value :  2.27566e-05
 Reference value :  2.27596e-05
 Reference value :  2.27750e-05
 Reference value :  2.30000e-05
 Reference value :  2.30002e-05
 Reference value :  2.30009e-05
 Reference value :  2.30015e-05
 Reference value :  2.30024e-05
 Reference value :  2.30034e-05
 Reference value :  2.30046e-05
 Reference value :  2.30057e-05
 Reference value :  2.30073e-05
 Reference value :  2.30092e-05
 Reference value :  2.30112e-05
 Reference value :  2.30120e-05
 Reference value :  2.30136e-05
 Reference value :  2.30145e-05
 Reference value :  2.30164e-05
 Reference value :  2.30212e-05
 Reference value :  2.30240e-05
 Reference value :  2.30319e-05
 Reference value :  2.30368e-05
 Reference value :  2.30472e-05
 Reference value :  2.30574e-05
 Reference value :  2.30736e-05
 Reference value :  2.31429e-05
 Reference value :  2.32501e-05
 Reference value :  2.32502e-05
 Reference value :  2.32503e-05
 Reference value :  2.32504e-05
 Reference value :  2.32510e-05
 Reference value :  2.32514e-05
 Reference value :  2.32523e-05
 Reference value :  2.32530e-05
 Reference value :  2.32535e-05
 Reference value :  2.32546e-05
 Reference value :  2.32560e-05
 Reference value :  2.32589e-05
 Reference value :  2.32652e-05
 Reference value :  2.32865e-05
 Reference value :  2.33721e-05
 Reference value :  2.35000e-05
 Reference value :  2.35000e-05
 Reference value :  2.35001e-05
 Reference value :  2.35001e-05
 Reference value :  2.35002e-05
 Reference value :  2.35005e-05
 Reference value :  2.35008e-05
 Reference value :  2.35016e-05
 Reference value :  2.35024e-05
 Reference value :  2.35029e-05
 Reference value :  2.35034e-05
 Reference value :  2.35047e-05
 Reference value :  2.35062e-05
 Reference value :  2.35069e-05
 Reference value :  2.35087e-05
 Reference value :  2.35125e-05
 Reference value :  2.35473e-05
 Reference value :  2.37501e-05
 Reference value :  2.37502e-05
 Reference value :  2.37503e-05
 Reference value :  2.37507e-05
 Reference value :  2.37519e-05
 Reference value :  2.37534e-05
 Reference value :  2.37550e-05
 Reference value :  2.37582e-05
 Reference value :  2.37824e-05
 Reference value :  2.39578e-05
 Reference value :  2.40000e-05
 Reference value :  2.40001e-05
 Reference value :  2.40002e-05
 Reference value :  2.40008e-05
 Reference value :  2.40016e-05
 Reference value :  2.40024e-05
 Reference value :  2.40029e-05
 Reference value :  2.40040e-05
 Reference value :  2.40050e-05
 Reference value :  2.40071e-05
 Reference value :  2.40100e-05
 Reference value :  2.40112e-05
 Reference value :  2.40132e-05
 Reference value :  2.40152e-05
 Reference value :  2.40191e-05
 Reference value :  2.40288e-05
 Reference value :  2.40494e-05
 Reference value :  2.40904e-05
 Reference value :  2.41123e-05
 Reference value :  2.41277e-05
 Reference value :  2.41675e-05
 Reference value :  2.42501e-05
 Reference value :  2.42502e-05
 Reference value :  2.42502e-05
 Reference value :  2.42504e-05
 Reference value :  2.42510e-05
 Reference value :  2.42514e-05
 Reference value :  2.42523e-05
 Reference value :  2.42534e-05
 Reference value :  2.42553e-05
 Reference value :  2.42614e-05
 Reference value :  2.43679e-05
 Reference value :  2.45000e-05
 Reference value :  2.45001e-05
 Reference value :  2.45003e-05
 Reference value :  2.45012e-05
 Reference value :  2.45015e-05
 Reference value :  2.45023e-05
 Reference value :  2.45028e-05
 Reference value :  2.45039e-05
 Reference value :  2.45054e-05
 Reference value :  2.45060e-05
 Reference value :  2.45075e-05
 Reference value :  2.45092e-05
 Reference value :  2.45114e-05
 Reference value :  2.45221e-05
 Reference value :  2.45792e-05
 Reference value :  2.47501e-05
 Reference value :  2.47502e-05
 Reference value :  2.47503e-05
 Reference value :  2.47503e-05
 Reference value :  2.47504e-05
 Reference value :  2.47510e-05
 Reference value :  2.47514e-05
 Reference value :  2.47523e-05
 Reference value :  2.47534e-05
 Reference value :  2.47545e-05
 Reference value :  2.47558e-05
 Reference value :  2.47583e-05
 Reference value :  2.47636e-05
 Reference value :  2.48192e-05
 Reference value :  2.50000e-05
 Reference value :  2.50001e-05
 Reference value :  2.50002e-05
 Reference value :  2.50008e-05
 Reference value :  2.50016e-05
 Reference value :  2.50029e-05
 Reference value :  2.50039e-05
 Reference value :  2.50048e-05
 Reference value :  2.50059e-05
 Reference value :  2.50074e-05
 Reference value :  2.50090e-05
 Reference value :  2.50109e-05
 Reference value :  2.50141e-05
 Reference value :  2.50173e-05
 Reference value :  2.50253e-05
 Reference value :  2.50368e-05
 Reference value :  2.50482e-05
 Reference value :  2.50718e-05
 Reference value :  2.51155e-05
 Reference value :  2.52501e-05
 Reference value :  2.52501e-05
 Reference value :  2.52502e-05
 Reference value :  2.52503e-05
 Reference value :  2.52507e-05
 Reference value :  2.52514e-05
 Reference value :  2.52523e-05
 Reference value :  2.52536e-05
 Reference value :  2.52553e-05
 Reference value :  2.52577e-05
 Reference value :  2.52663e-05
 Reference value :  2.53217e-05
 Reference value :  2.55000e-05
 Reference value :  2.55000e-05
 Reference value :  2.55000e-05
 Reference value :  2.55000e-05
 Reference value :  2.55001e-05
 Reference value :  2.55003e-05
 Reference value :  2.55007e-05
 Reference value :  2.55016e-05
 Reference value :  2.55020e-05
 Reference value :  2.55029e-05
 Reference value :  2.55040e-05
 Reference value :  2.55045e-05
 Reference value :  2.55055e-05
 Reference value :  2.55090e-05
 Reference value :  2.55173e-05
 Reference value :  2.55224e-05
 Reference value :  2.55262e-05
 Reference value :  2.55291e-05
 Reference value :  2.55341e-05
 Reference value :  2.55356e-05
 Reference value :  2.55391e-05
 Reference value :  2.55432e-05
 Reference value :  2.55489e-05
 Reference value :  2.55565e-05
 Reference value :  2.55763e-05
 Reference value :  2.56267e-05
 Reference value :  2.57101e-05
 Reference value :  2.57239e-05
 Reference value :  2.57501e-05
 Reference value :  2.57502e-05
 Reference value :  2.57502e-05
 Reference value :  2.57504e-05
 Reference value :  2.57514e-05
 Reference value :  2.57530e-05
 Reference value :  2.57539e-05
 Reference value :  2.57559e-05
 Reference value :  2.57647e-05
 Reference value :  2.58640e-05
 Reference value :  2.60000e-05
 Reference value :  2.60001e-05
 Reference value :  2.60001e-05
 Reference value :  2.60002e-05
 Reference value :  2.60005e-05
 Reference value :  2.60012e-05
 Reference value :  2.60015e-05
 Reference value :  2.60023e-05
 Reference value :  2.60028e-05
 Reference value :  2.60039e-05
 Reference value :  2.60064e-05
 Reference value :  2.60088e-05
 Reference value :  2.60112e-05
 Reference value :  2.60137e-05
 Reference value :  2.60172e-05
 Reference value :  2.60334e-05
 Reference value :  2.61385e-05
 Reference value :  2.62501e-05
 Reference value :  2.62502e-05
 Reference value :  2.62504e-05
 Reference value :  2.62510e-05
 Reference value :  2.62519e-05
 Reference value :  2.62530e-05
 Reference value :  2.62540e-05
 Reference value :  2.62550e-05
 Reference value :  2.62558e-05
 Reference value :  2.62582e-05
 Reference value :  2.62666e-05
 Reference value :  2.64321e-05
 Reference value :  2.65011e-05
 Reference value :  2.65046e-05
 Reference value :  2.65066e-05
 Reference value :  2.65094e-05
 Reference value :  2.65133e-05
 Reference value :  2.65176e-05
 Reference value :  2.65664e-05
 Reference value :  2.67501e-05
 Reference value :  2.67503e-05
 Reference value :  2.67514e-05
 Reference value :  2.67533e-05
 Reference value :  2.67549e-05
 Reference value :  2.67603e-05
 Reference value :  2.68039e-05
 Reference value :  2.70000e-05
 Reference value :  2.70001e-05
 Reference value :  2.70001e-05
 Reference value :  2.70003e-05
 Reference value :  2.70012e-05
 Reference value :  2.70019e-05
 Reference value :  2.70028e-05
 Reference value :  2.70039e-05
 Reference value :  2.70054e-05
 Reference value :  2.70060e-05
 Reference value :  2.70075e-05
 Reference value :  2.70092e-05
 Reference value :  2.70114e-05
 Reference value :  2.70221e-05
 Reference value :  2.70790e-05
 Reference value :  2.72501e-05
 Reference value :  2.72502e-05
 Reference value :  2.72503e-05
 Reference value :  2.72507e-05
 Reference value :  2.72514e-05
 Reference value :  2.72530e-05
 Reference value :  2.72540e-05
 Reference value :  2.72550e-05
 Reference value :  2.72558e-05
 Reference value :  2.72575e-05
 Reference value :  2.72596e-05
 Reference value :  2.72747e-05
 Reference value :  2.74960e-05
 Reference value :  2.75000e-05
 Reference value :  2.75001e-05
 Reference value :  2.75003e-05
 Reference value :  2.75012e-05
 Reference value :  2.75020e-05
 Reference value :  2.75029e-05
 Reference value :  2.75039e-05
 Reference value :  2.75053e-05
 Reference value :  2.75076e-05
 Reference value :  2.75093e-05
 Reference value :  2.75111e-05
 Reference value :  2.75127e-05
 Reference value :  2.75155e-05
 Reference value :  2.75194e-05
 Reference value :  2.75428e-05
 Reference value :  2.75787e-05
 Reference value :  2.75863e-05
 Reference value :  2.76001e-05
 Reference value :  2.76211e-05
 Reference value :  2.77348e-05
 Reference value :  2.77502e-05
 Reference value :  2.77503e-05
 Reference value :  2.77507e-05
 Reference value :  2.77514e-05
 Reference value :  2.77530e-05
 Reference value :  2.77540e-05
 Reference value :  2.77560e-05
 Reference value :  2.77723e-05
 Reference value :  2.80000e-05
 Reference value :  2.80003e-05
 Reference value :  2.80013e-05
 Reference value :  2.80024e-05
 Reference value :  2.80040e-05
 Reference value :  2.80066e-05
 Reference value :  2.80097e-05
 Reference value :  2.80183e-05
 Reference value :  2.80935e-05
 Reference value :  2.82501e-05
 Reference value :  2.82502e-05
 Reference value :  2.82507e-05
 Reference value :  2.82514e-05
 Reference value :  2.82530e-05
 Reference value :  2.82540e-05
 Reference value :  2.82558e-05
 Reference value :  2.82635e-05
 Reference value :  2.84549e-05
 Reference value :  2.85001e-05
 Reference value :  2.85002e-05
 Reference value :  2.85005e-05
 Reference value :  2.85016e-05
 Reference value :  2.85029e-05
 Reference value :  2.85045e-05
 Reference value :  2.85055e-05
 Reference value :  2.85085e-05
 Reference value :  2.85112e-05
 Reference value :  2.85132e-05
 Reference value :  2.85152e-05
 Reference value :  2.85207e-05
 Reference value :  2.85493e-05
 Reference value :  2.85872e-05
 Reference value :  2.86211e-05
 Reference value :  2.86438e-05
 Reference value :  2.86494e-05
 Reference value :  2.86627e-05
 Reference value :  2.86837e-05
 Reference value :  2.87501e-05
 Reference value :  2.87502e-05
 Reference value :  2.87503e-05
 Reference value :  2.87510e-05
 Reference value :  2.87519e-05
 Reference value :  2.87530e-05
 Reference value :  2.87540e-05
 Reference value :  2.87552e-05
 Reference value :  2.87616e-05
 Reference value :  2.88154e-05
 Reference value :  2.89835e-05
 Reference value :  2.90003e-05
 Reference value :  2.90012e-05
 Reference value :  2.90022e-05
 Reference value :  2.90037e-05
 Reference value :  2.90056e-05
 Reference value :  2.90080e-05
 Reference value :  2.90098e-05
 Reference value :  2.90255e-05
 Reference value :  2.92501e-05
 Reference value :  2.92502e-05
 Reference value :  2.92504e-05
 Reference value :  2.92514e-05
 Reference value :  2.92530e-05
 Reference value :  2.92540e-05
 Reference value :  2.92550e-05
 Reference value :  2.92565e-05
 Reference value :  2.92633e-05
 Reference value :  2.93049e-05
 Reference value :  2.95000e-05
 Reference value :  2.95000e-05
 Reference value :  2.95001e-05
 Reference value :  2.95002e-05
 Reference value :  2.95003e-05
 Reference value :  2.95012e-05
 Reference value :  2.95024e-05
 Reference value :  2.95040e-05
 Reference value :  2.95063e-05
 Reference value :  2.95112e-05
 Reference value :  2.95143e-05
 Reference value :  2.95174e-05
 Reference value :  2.95289e-05
 Reference value :  2.95458e-05
 Reference value :  2.95597e-05
 Reference value :  2.95829e-05
 Reference value :  2.96648e-05
 Reference value :  2.97501e-05
 Reference value :  2.97502e-05
 Reference value :  2.97507e-05
 Reference value :  2.97519e-05
 Reference value :  2.97530e-05
 Reference value :  2.97546e-05
 Reference value :  2.97588e-05
 Reference value :  2.97857e-05
 Reference value :  3.00000e-05
 Reference value :  3.00001e-05
 Reference value :  3.00002e-05
 Reference value :  3.00008e-05
 Reference value :  3.00015e-05
 Reference value :  3.00028e-05
 Reference value :  3.00046e-05
 Reference value :  3.00060e-05
 Reference value :  3.00075e-05
 Reference value :  3.00103e-05
 Reference value :  3.00221e-05
 Reference value :  3.01426e-05
 Reference value :  3.02501e-05
 Reference value :  3.02502e-05
 Reference value :  3.02504e-05
 Reference value :  3.02510e-05
 Reference value :  3.02519e-05
 Reference value :  3.02530e-05
 Reference value :  3.02540e-05
 Reference value :  3.02550e-05
 Reference value :  3.02566e-05
 Reference value :  3.02596e-05
 Reference value :  3.02674e-05
 Reference value :  3.03797e-05
 Reference value :  3.05000e-05
 Reference value :  3.05001e-05
 Reference value :  3.05003e-05
 Reference value :  3.05016e-05
 Reference value :  3.05029e-05
 Reference value :  3.05039e-05
 Reference value :  3.05049e-05
 Reference value :  3.05068e-05
 Reference value :  3.05088e-05
 Reference value :  3.05106e-05
 Reference value :  3.05122e-05
 Reference value :  3.05137e-05
 Reference value :  3.05166e-05
 Reference value :  3.05260e-05
 Reference value :  3.05393e-05
 Reference value :  3.05506e-05
 Reference value :  3.05626e-05
 Reference value :  3.05689e-05
 Reference value :  3.05838e-05
 Reference value :  3.06045e-05
 Reference value :  3.06660e-05
 Reference value :  3.07501e-05
 Reference value :  3.07502e-05
 Reference value :  3.07502e-05
 Reference value :  3.07504e-05
 Reference value :  3.07510e-05
 Reference value :  3.07519e-05
 Reference value :  3.07530e-05
 Reference value :  3.07540e-05
 Reference value :  3.07560e-05
 Reference value :  3.07653e-05
 Reference value :  3.08733e-05
 Reference value :  3.10000e-05
 Reference value :  3.10001e-05
 Reference value :  3.10002e-05
 Reference value :  3.10008e-05
 Reference value :  3.10015e-05
 Reference value :  3.10028e-05
 Reference value :  3.10046e-05
 Reference value :  3.10060e-05
 Reference value :  3.10075e-05
 Reference value :  3.10103e-05
 Reference value :  3.10315e-05
 Reference value :  3.12501e-05
 Reference value :  3.12502e-05
 Reference value :  3.12504e-05
 Reference value :  3.12514e-05
 Reference value :  3.12530e-05
 Reference value :  3.12540e-05
 Reference value :  3.12550e-05
 Reference value :  3.12566e-05
 Reference value :  3.12584e-05
 Reference value :  3.12610e-05
 Reference value :  3.12898e-05
 Reference value :  3.15000e-05
 Reference value :  3.15001e-05
 Reference value :  3.15002e-05
 Reference value :  3.15005e-05
 Reference value :  3.15012e-05
 Reference value :  3.15020e-05
 Reference value :  3.15029e-05
 Reference value :  3.15039e-05
 Reference value :  3.15048e-05
 Reference value :  3.15076e-05
 Reference value :  3.15093e-05
 Reference value :  3.15102e-05
 Reference value :  3.15119e-05
 Reference value :  3.15144e-05
 Reference value :  3.15173e-05
 Reference value :  3.15235e-05
 Reference value :  3.15352e-05
 Reference value :  3.15426e-05
 Reference value :  3.15689e-05
 Reference value :  3.17501e-05
 Reference value :  3.17502e-05
 Reference value :  3.17502e-05
 Reference value :  3.17504e-05
 Reference value :  3.17514e-05
 Reference value :  3.17523e-05
 Reference value :  3.17534e-05
 Reference value :  3.17546e-05
 Reference value :  3.17574e-05
 Reference value :  3.17723e-05
 Reference value :  3.18723e-05
 Reference value :  3.20000e-05
 Reference value :  3.20001e-05
 Reference value :  3.20002e-05
 Reference value :  3.20008e-05
 Reference value :  3.20016e-05
 Reference value :  3.20029e-05
 Reference value :  3.20040e-05
 Reference value :  3.20055e-05
 Reference value :  3.20062e-05
 Reference value :  3.20077e-05
 Reference value :  3.20109e-05
 Reference value :  3.20295e-05
 Reference value :  3.22501e-05
 Reference value :  3.22502e-05
 Reference value :  3.22503e-05
 Reference value :  3.22510e-05
 Reference value :  3.22519e-05
 Reference value :  3.22530e-05
 Reference value :  3.22534e-05
 Reference value :  3.22545e-05
 Reference value :  3.22558e-05
 Reference value :  3.22636e-05
 Reference value :  3.23069e-05
 Reference value :  3.25000e-05
 Reference value :  3.25001e-05
 Reference value :  3.25002e-05
 Reference value :  3.25008e-05
 Reference value :  3.25020e-05
 Reference value :  3.25034e-05
 Reference value :  3.25050e-05
 Reference value :  3.25071e-05
 Reference value :  3.25112e-05
 Reference value :  3.25132e-05
 Reference value :  3.25152e-05
 Reference value :  3.25191e-05
 Reference value :  3.25365e-05
 Reference value :  3.26083e-05
 Reference value :  3.27501e-05
 Reference value :  3.27502e-05
 Reference value :  3.27502e-05
 Reference value :  3.27504e-05
 Reference value :  3.27510e-05
 Reference value :  3.27519e-05
 Reference value :  3.27534e-05
 Reference value :  3.27553e-05
 Reference value :  3.27618e-05
 Reference value :  3.28775e-05
 Reference value :  3.29355e-05
 Reference value :  3.30000e-05
 Reference value :  3.30001e-05
 Reference value :  3.30002e-05
 Reference value :  3.30008e-05
 Reference value :  3.30015e-05
 Reference value :  3.30028e-05
 Reference value :  3.30039e-05
 Reference value :  3.30053e-05
 Reference value :  3.30060e-05
 Reference value :  3.30075e-05
 Reference value :  3.30103e-05
 Reference value :  3.30223e-05
 Reference value :  3.30816e-05
 Reference value :  3.32501e-05
 Reference value :  3.32502e-05
 Reference value :  3.32503e-05
 Reference value :  3.32507e-05
 Reference value :  3.32514e-05
 Reference value :  3.32523e-05
 Reference value :  3.32534e-05
 Reference value :  3.32550e-05
 Reference value :  3.32566e-05
 Reference value :  3.32596e-05
 Reference value :  3.32748e-05
 Reference value :  3.34989e-05
 Reference value :  3.35000e-05
 Reference value :  3.35002e-05
 Reference value :  3.35005e-05
 Reference value :  3.35016e-05
 Reference value :  3.35029e-05
 Reference value :  3.35039e-05
 Reference value :  3.35048e-05
 Reference value :  3.35065e-05
 Reference value :  3.35080e-05
 Reference value :  3.35094e-05
 Reference value :  3.35138e-05
 Reference value :  3.35171e-05
 Reference value :  3.35220e-05
 Reference value :  3.35294e-05
 Reference value :  3.35451e-05
 Reference value :  3.36400e-05
 Reference value :  3.37501e-05
 Reference value :  3.37502e-05
 Reference value :  3.37504e-05
 Reference value :  3.37514e-05
 Reference value :  3.37530e-05
 Reference value :  3.37553e-05
 Reference value :  3.37577e-05
 Reference value :  3.37750e-05
 Reference value :  3.40000e-05
 Reference value :  3.40000e-05
 Reference value :  3.40000e-05
 Reference value :  3.40001e-05
 Reference value :  3.40004e-05
 Reference value :  3.40020e-05
 Reference value :  3.40029e-05
 Reference value :  3.40040e-05
 Reference value :  3.40045e-05
 Reference value :  3.40055e-05
 Reference value :  3.40090e-05
 Reference value :  3.40180e-05
 Reference value :  3.40238e-05
 Reference value :  3.40275e-05
 Reference value :  3.40313e-05
 Reference value :  3.40355e-05
 Reference value :  3.40463e-05
 Reference value :  3.40904e-05
 Reference value :  3.41815e-05
 Reference value :  3.42278e-05
 Reference value :  3.42501e-05
 Reference value :  3.42502e-05
 Reference value :  3.42507e-05
 Reference value :  3.42519e-05
 Reference value :  3.42534e-05
 Reference value :  3.42559e-05
 Reference value :  3.42715e-05
 Reference value :  3.45000e-05
 Reference value :  3.45001e-05
 Reference value :  3.45003e-05
 Reference value :  3.45008e-05
 Reference value :  3.45019e-05
 Reference value :  3.45028e-05
 Reference value :  3.45046e-05
 Reference value :  3.45077e-05
 Reference value :  3.45112e-05
 Reference value :  3.45154e-05
 Reference value :  3.45334e-05
 Reference value :  3.47501e-05
 Reference value :  3.47502e-05
 Reference value :  3.47502e-05
 Reference value :  3.47504e-05
 Reference value :  3.47514e-05
 Reference value :  3.47530e-05
 Reference value :  3.47540e-05
 Reference value :  3.47550e-05
 Reference value :  3.47566e-05
 Reference value :  3.47595e-05
 Reference value :  3.47668e-05
 Reference value :  3.48640e-05
 Reference value :  3.50000e-05
 Reference value :  3.50001e-05
 Reference value :  3.50002e-05
 Reference value :  3.50008e-05
 Reference value :  3.50016e-05
 Reference value :  3.50024e-05
 Reference value :  3.50029e-05
 Reference value :  3.50039e-05
 Reference value :  3.50048e-05
 Reference value :  3.50059e-05
 Reference value :  3.50076e-05
 Reference value :  3.50093e-05
 Reference value :  3.50101e-05
 Reference value :  3.50119e-05
 Reference value :  3.50136e-05
 Reference value :  3.50154e-05
 Reference value :  3.50164e-05
 Reference value :  3.50192e-05
 Reference value :  3.50319e-05
 Reference value :  3.51115e-05
 Reference value :  3.52501e-05
 Reference value :  3.52501e-05
 Reference value :  3.52502e-05
 Reference value :  3.52503e-05
 Reference value :  3.52504e-05
 Reference value :  3.52510e-05
 Reference value :  3.52514e-05
 Reference value :  3.52530e-05
 Reference value :  3.52540e-05
 Reference value :  3.52575e-05
 Reference value :  3.52873e-05
 Reference value :  3.55000e-05
 Reference value :  3.55001e-05
 Reference value :  3.55002e-05
 Reference value :  3.55005e-05
 Reference value :  3.55015e-05
 Reference value :  3.55028e-05
 Reference value :  3.55046e-05
 Reference value :  3.55060e-05
 Reference value :  3.55084e-05
 Reference value :  3.55103e-05
 Reference value :  3.55221e-05
 Reference value :  3.57501e-05
 Reference value :  3.57502e-05
 Reference value :  3.57504e-05
 Reference value :  3.57514e-05
 Reference value :  3.57530e-05
 Reference value :  3.57540e-05
 Reference value :  3.57550e-05
 Reference value :  3.57575e-05
 Reference value :  3.57610e-05
 Reference value :  3.57747e-05
 Reference value :  3.59968e-05
 Reference value :  3.60001e-05
 Reference value :  3.60001e-05
 Reference value :  3.60005e-05
 Reference value :  3.60016e-05
 Reference value :  3.60029e-05
 Reference value :  3.60044e-05
 Reference value :  3.60053e-05
 Reference value :  3.60075e-05
 Reference value :  3.60093e-05
 Reference value :  3.60113e-05
 Reference value :  3.60136e-05
 Reference value :  3.60164e-05
 Reference value :  3.60251e-05
 Reference value :  3.60537e-05
 Reference value :  3.60792e-05
 Reference value :  3.60946e-05
 Reference value :  3.61135e-05
 Reference value :  3.61671e-05
 Reference value :  3.62501e-05
 Reference value :  3.62502e-05
 Reference value :  3.62504e-05
 Reference value :  3.62514e-05
 Reference value :  3.62530e-05
 Reference value :  3.62540e-05
 Reference value :  3.62552e-05
 Reference value :  3.62589e-05
 Reference value :  3.62865e-05
 Reference value :  3.65000e-05
 Reference value :  3.65001e-05
 Reference value :  3.65001e-05
 Reference value :  3.65002e-05
 Reference value :  3.65005e-05
 Reference value :  3.65012e-05
 Reference value :  3.65020e-05
 Reference value :  3.65029e-05
 Reference value :  3.65040e-05
 Reference value :  3.65055e-05
 Reference value :  3.65069e-05
 Reference value :  3.65087e-05
 Reference value :  3.65155e-05
 Reference value :  3.65829e-05
 Reference value :  3.67501e-05
 Reference value :  3.67502e-05
 Reference value :  3.67503e-05
 Reference value :  3.67507e-05
 Reference value :  3.67514e-05
 Reference value :  3.67530e-05
 Reference value :  3.67540e-05
 Reference value :  3.67550e-05
 Reference value :  3.67566e-05
 Reference value :  3.67636e-05
 Reference value :  3.68584e-05
 Reference value :  3.70000e-05
 Reference value :  3.70001e-05
 Reference value :  3.70005e-05
 Reference value :  3.70016e-05
 Reference value :  3.70029e-05
 Reference value :  3.70045e-05
 Reference value :  3.70055e-05
 Reference value :  3.70085e-05
 Reference value :  3.70112e-05
 Reference value :  3.70132e-05
 Reference value :  3.70152e-05
 Reference value :  3.70191e-05
 Reference value :  3.70362e-05
 Reference value :  3.70896e-05
 Reference value :  3.71265e-05
 Reference value :  3.71486e-05
 Reference value :  3.71781e-05
 Reference value :  3.72501e-05
 Reference value :  3.72502e-05
 Reference value :  3.72503e-05
 Reference value :  3.72510e-05
 Reference value :  3.72514e-05
 Reference value :  3.72523e-05
 Reference value :  3.72534e-05
 Reference value :  3.72546e-05
 Reference value :  3.72560e-05
 Reference value :  3.72616e-05
 Reference value :  3.72866e-05
 Reference value :  3.74275e-05
 Reference value :  3.75001e-05
 Reference value :  3.75002e-05
 Reference value :  3.75005e-05
 Reference value :  3.75012e-05
 Reference value :  3.75020e-05
 Reference value :  3.75029e-05
 Reference value :  3.75040e-05
 Reference value :  3.75055e-05
 Reference value :  3.75062e-05
 Reference value :  3.75077e-05
 Reference value :  3.75096e-05
 Reference value :  3.75155e-05
 Reference value :  3.75471e-05
 Reference value :  3.77501e-05
 Reference value :  3.77502e-05
 Reference value :  3.77504e-05
 Reference value :  3.77514e-05
 Reference value :  3.77530e-05
 Reference value :  3.77545e-05
 Reference value :  3.77566e-05
 Reference value :  3.77699e-05
 Reference value :  3.79577e-05
 Reference value :  3.80000e-05
 Reference value :  3.80001e-05
 Reference value :  3.80002e-05
 Reference value :  3.80008e-05
 Reference value :  3.80016e-05
 Reference value :  3.80029e-05
 Reference value :  3.80040e-05
 Reference value :  3.80050e-05
 Reference value :  3.80071e-05
 Reference value :  3.80112e-05
 Reference value :  3.80143e-05
 Reference value :  3.80174e-05
 Reference value :  3.80289e-05
 Reference value :  3.80466e-05
 Reference value :  3.80557e-05
 Reference value :  3.80721e-05
 Reference value :  3.81315e-05
 Reference value :  3.82501e-05
 Reference value :  3.82503e-05
 Reference value :  3.82514e-05
 Reference value :  3.82530e-05
 Reference value :  3.82539e-05
 Reference value :  3.82559e-05
 Reference value :  3.82649e-05
 Reference value :  3.84792e-05
 Reference value :  3.85004e-05
 Reference value :  3.85015e-05
 Reference value :  3.85028e-05
 Reference value :  3.85048e-05
 Reference value :  3.85062e-05
 Reference value :  3.85077e-05
 Reference value :  3.85107e-05
 Reference value :  3.85537e-05
 Reference value :  3.87501e-05
 Reference value :  3.87502e-05
 Reference value :  3.87503e-05
 Reference value :  3.87510e-05
 Reference value :  3.87519e-05
 Reference value :  3.87530e-05
 Reference value :  3.87540e-05
 Reference value :  3.87550e-05
 Reference value :  3.87566e-05
 Reference value :  3.87596e-05
 Reference value :  3.87673e-05
 Reference value :  3.88784e-05
 Reference value :  3.90000e-05
 Reference value :  3.90001e-05
 Reference value :  3.90002e-05
 Reference value :  3.90008e-05
 Reference value :  3.90016e-05
 Reference value :  3.90029e-05
 Reference value :  3.90039e-05
 Reference value :  3.90048e-05
 Reference value :  3.90066e-05
 Reference value :  3.90084e-05
 Reference value :  3.90102e-05
 Reference value :  3.90119e-05
 Reference value :  3.90136e-05
 Reference value :  3.90164e-05
 Reference value :  3.90207e-05
 Reference value :  3.90445e-05
 Reference value :  3.90494e-05
 Reference value :  3.90586e-05
 Reference value :  3.90869e-05
 Reference value :  3.91195e-05
 Reference value :  3.91416e-05
 Reference value :  3.91928e-05
 Reference value :  3.92501e-05
 Reference value :  3.92502e-05
 Reference value :  3.92504e-05
 Reference value :  3.92514e-05
 Reference value :  3.92530e-05
 Reference value :  3.92539e-05
 Reference value :  3.92560e-05
 Reference value :  3.92650e-05
 Reference value :  3.93694e-05
 Reference value :  3.95000e-05
 Reference value :  3.95001e-05
 Reference value :  3.95003e-05
 Reference value :  3.95012e-05
 Reference value :  3.95019e-05
 Reference value :  3.95028e-05
 Reference value :  3.95046e-05
 Reference value :  3.95060e-05
 Reference value :  3.95075e-05
 Reference value :  3.95103e-05
 Reference value :  3.95221e-05
 Reference value :  3.96422e-05
 Reference value :  3.97501e-05
 Reference value :  3.97502e-05
 Reference value :  3.97503e-05
 Reference value :  3.97507e-05
 Reference value :  3.97514e-05
 Reference value :  3.97523e-05
 Reference value :  3.97534e-05
 Reference value :  3.97545e-05
 Reference value :  3.97558e-05
 Reference value :  3.97575e-05
 Reference value :  3.97596e-05
 Reference value :  3.97747e-05
 Reference value :  3.98781e-05
 Reference value :  4.00000e-05
 Reference value :  4.00001e-05
 Reference value :  4.00001e-05
 Reference value :  4.00002e-05
 Reference value :  4.00005e-05
 Reference value :  4.00012e-05
 Reference value :  4.00020e-05
 Reference value :  4.00029e-05
 Reference value :  4.00044e-05
 Reference value :  4.00053e-05
 Reference value :  4.00076e-05
 Reference value :  4.00093e-05
 Reference value :  4.00102e-05
 Reference value :  4.00119e-05
 Reference value :  4.00144e-05
 Reference value :  4.00164e-05
 Reference value :  4.00193e-05
 Reference value :  4.00275e-05
 Reference value :  4.00300e-05
 Reference value :  4.00351e-05
 Reference value :  4.00461e-05
 Reference value :  4.00922e-05
 Reference value :  4.02035e-05
 Reference value :  4.02501e-05
 Reference value :  4.02502e-05
 Reference value :  4.02504e-05
 Reference value :  4.02510e-05
 Reference value :  4.02519e-05
 Reference value :  4.02530e-05
 Reference value :  4.02534e-05
 Reference value :  4.02546e-05
 Reference value :  4.02574e-05
 Reference value :  4.02652e-05
 Reference value :  4.02866e-05
 Reference value :  4.04866e-05
 Reference value :  4.05000e-05
 Reference value :  4.05001e-05
 Reference value :  4.05001e-05
 Reference value :  4.05002e-05
 Reference value :  4.05005e-05
 Reference value :  4.05016e-05
 Reference value :  4.05024e-05
 Reference value :  4.05034e-05
 Reference value :  4.05047e-05
 Reference value :  4.05062e-05
 Reference value :  4.05077e-05
 Reference value :  4.05096e-05
 Reference value :  4.05125e-05
 Reference value :  4.05296e-05
 Reference value :  4.05825e-05
 Reference value :  4.07501e-05
 Reference value :  4.07502e-05
 Reference value :  4.07503e-05
 Reference value :  4.07510e-05
 Reference value :  4.07519e-05
 Reference value :  4.07530e-05
 Reference value :  4.07534e-05
 Reference value :  4.07545e-05
 Reference value :  4.07558e-05
 Reference value :  4.07603e-05
 Reference value :  4.07822e-05
 Reference value :  4.09559e-05
 Reference value :  4.10007e-05
 Reference value :  4.10030e-05
 Reference value :  4.10044e-05
 Reference value :  4.10056e-05
 Reference value :  4.10093e-05
 Reference value :  4.10130e-05
 Reference value :  4.10160e-05
 Reference value :  4.10227e-05
 Reference value :  4.10449e-05
 Reference value :  4.12464e-05
 Reference value :  4.12501e-05
 Reference value :  4.12502e-05
 Reference value :  4.12503e-05
 Reference value :  4.12507e-05
 Reference value :  4.12514e-05
 Reference value :  4.12523e-05
 Reference value :  4.12530e-05
 Reference value :  4.12534e-05
 Reference value :  4.12545e-05
 Reference value :  4.12572e-05
 Reference value :  4.12644e-05
 Reference value :  4.13091e-05
 Reference value :  4.15000e-05
 Reference value :  4.15001e-05
 Reference value :  4.15002e-05
 Reference value :  4.15008e-05
 Reference value :  4.15016e-05
 Reference value :  4.15029e-05
 Reference value :  4.15047e-05
 Reference value :  4.15062e-05
 Reference value :  4.15086e-05
 Reference value :  4.15124e-05
 Reference value :  4.15452e-05
 Reference value :  4.17501e-05
 Reference value :  4.17502e-05
 Reference value :  4.17503e-05
 Reference value :  4.17507e-05
 Reference value :  4.17514e-05
 Reference value :  4.17530e-05
 Reference value :  4.17534e-05
 Reference value :  4.17545e-05
 Reference value :  4.17558e-05
 Reference value :  4.17603e-05
 Reference value :  4.17825e-05
 Reference value :  4.19588e-05
 Reference value :  4.20000e-05
 Reference value :  4.20001e-05
 Reference value :  4.20001e-05
 Reference value :  4.20002e-05
 Reference value :  4.20005e-05
 Reference value :  4.20012e-05
 Reference value :  4.20020e-05
 Reference value :  4.20029e-05
 Reference value :  4.20045e-05
 Reference value :  4.20056e-05
 Reference value :  4.20079e-05
 Reference value :  4.20156e-05
 Reference value :  4.22501e-05
 Reference value :  4.22502e-05
 Reference value :  4.22504e-05
 Reference value :  4.22514e-05
 Reference value :  4.22530e-05
 Reference value :  4.22553e-05
 Reference value :  4.22592e-05
 Reference value :  4.23217e-05
 Reference value :  4.25000e-05
 Reference value :  4.25000e-05
 Reference value :  4.25001e-05
 Reference value :  4.25001e-05
 Reference value :  4.25007e-05
 Reference value :  4.25020e-05
 Reference value :  4.25035e-05
 Reference value :  4.25045e-05
 Reference value :  4.25062e-05
 Reference value :  4.25224e-05
 Reference value :  4.25262e-05
 Reference value :  4.25291e-05
 Reference value :  4.25312e-05
 Reference value :  4.25348e-05
 Reference value :  4.25356e-05
 Reference value :  4.25382e-05
 Reference value :  4.25480e-05
 Reference value :  4.25596e-05
 Reference value :  4.26166e-05
 Reference value :  4.26882e-05
 Reference value :  4.27276e-05
 Reference value :  4.27366e-05
 Reference value :  4.27501e-05
 Reference value :  4.27502e-05
 Reference value :  4.27503e-05
 Reference value :  4.27514e-05
 Reference value :  4.27530e-05
 Reference value :  4.27545e-05
 Reference value :  4.27614e-05
 Reference value :  4.28643e-05
 Reference value :  4.30001e-05
 Reference value :  4.30002e-05
 Reference value :  4.30008e-05
 Reference value :  4.30019e-05
 Reference value :  4.30033e-05
 Reference value :  4.30064e-05
 Reference value :  4.30099e-05
 Reference value :  4.30124e-05
 Reference value :  4.30256e-05
 Reference value :  4.32501e-05
 Reference value :  4.32502e-05
 Reference value :  4.32507e-05
 Reference value :  4.32519e-05
 Reference value :  4.32530e-05
 Reference value :  4.32540e-05
 Reference value :  4.32550e-05
 Reference value :  4.32566e-05
 Reference value :  4.32596e-05
 Reference value :  4.33058e-05
 Reference value :  4.35011e-05
 Reference value :  4.35043e-05
 Reference value :  4.35082e-05
 Reference value :  4.35108e-05
 Reference value :  4.35124e-05
 Reference value :  4.35138e-05
 Reference value :  4.35164e-05
 Reference value :  4.35203e-05
 Reference value :  4.35785e-05
 Reference value :  4.37501e-05
 Reference value :  4.37502e-05
 Reference value :  4.37503e-05
 Reference value :  4.37510e-05
 Reference value :  4.37519e-05
 Reference value :  4.37533e-05
 Reference value :  4.37543e-05
 Reference value :  4.37566e-05
 Reference value :  4.37630e-05
 Reference value :  4.38034e-05
 Reference value :  4.39336e-05
 Reference value :  4.40000e-05
 Reference value :  4.40001e-05
 Reference value :  4.40002e-05
 Reference value :  4.40005e-05
 Reference value :  4.40012e-05
 Reference value :  4.40015e-05
 Reference value :  4.40028e-05
 Reference value :  4.40039e-05
 Reference value :  4.40060e-05
 Reference value :  4.40075e-05
 Reference value :  4.40103e-05
 Reference value :  4.40221e-05
 Reference value :  4.40788e-05
 Reference value :  4.42501e-05
 Reference value :  4.42502e-05
 Reference value :  4.42503e-05
 Reference value :  4.42510e-05
 Reference value :  4.42519e-05
 Reference value :  4.42534e-05
 Reference value :  4.42550e-05
 Reference value :  4.42566e-05
 Reference value :  4.42597e-05
 Reference value :  4.42750e-05
 Reference value :  4.45000e-05
 Reference value :  4.45001e-05
 Reference value :  4.45002e-05
 Reference value :  4.45008e-05
 Reference value :  4.45020e-05
 Reference value :  4.45029e-05
 Reference value :  4.45039e-05
 Reference value :  4.45048e-05
 Reference value :  4.45066e-05
 Reference value :  4.45084e-05
 Reference value :  4.45102e-05
 Reference value :  4.45119e-05
 Reference value :  4.45145e-05
 Reference value :  4.45177e-05
 Reference value :  4.45412e-05
 Reference value :  4.45764e-05
 Reference value :  4.45909e-05
 Reference value :  4.46013e-05
 Reference value :  4.46307e-05
 Reference value :  4.47501e-05
 Reference value :  4.47502e-05
 Reference value :  4.47507e-05
 Reference value :  4.47519e-05
 Reference value :  4.47534e-05
 Reference value :  4.47552e-05
 Reference value :  4.47616e-05
 Reference value :  4.48724e-05
 Reference value :  4.50001e-05
 Reference value :  4.50002e-05
 Reference value :  4.50005e-05
 Reference value :  4.50016e-05
 Reference value :  4.50029e-05
 Reference value :  4.50047e-05
 Reference value :  4.50062e-05
 Reference value :  4.50077e-05
 Reference value :  4.50109e-05
 Reference value :  4.50296e-05
 Reference value :  4.52501e-05
 Reference value :  4.52502e-05
 Reference value :  4.52502e-05
 Reference value :  4.52504e-05
 Reference value :  4.52514e-05
 Reference value :  4.52530e-05
 Reference value :  4.52540e-05
 Reference value :  4.52558e-05
 Reference value :  4.52636e-05
 Reference value :  4.54559e-05
 Reference value :  4.55001e-05
 Reference value :  4.55001e-05
 Reference value :  4.55005e-05
 Reference value :  4.55016e-05
 Reference value :  4.55029e-05
 Reference value :  4.55045e-05
 Reference value :  4.55055e-05
 Reference value :  4.55085e-05
 Reference value :  4.55112e-05
 Reference value :  4.55132e-05
 Reference value :  4.55152e-05
 Reference value :  4.55191e-05
 Reference value :  4.55360e-05
 Reference value :  4.55918e-05
 Reference value :  4.56599e-05
 Reference value :  4.57501e-05
 Reference value :  4.57502e-05
 Reference value :  4.57504e-05
 Reference value :  4.57514e-05
 Reference value :  4.57530e-05
 Reference value :  4.57540e-05
 Reference value :  4.57552e-05
 Reference value :  4.57589e-05
 Reference value :  4.57866e-05
 Reference value :  4.60000e-05
 Reference value :  4.60002e-05
 Reference value :  4.60009e-05
 Reference value :  4.60015e-05
 Reference value :  4.60029e-05
 Reference value :  4.60041e-05
 Reference value :  4.60058e-05
 Reference value :  4.60075e-05
 Reference value :  4.60094e-05
 Reference value :  4.60118e-05
 Reference value :  4.60222e-05
 Reference value :  4.60747e-05
 Reference value :  4.62501e-05
 Reference value :  4.62502e-05
 Reference value :  4.62502e-05
 Reference value :  4.62504e-05
 Reference value :  4.62514e-05
 Reference value :  4.62523e-05
 Reference value :  4.62534e-05
 Reference value :  4.62545e-05
 Reference value :  4.62558e-05
 Reference value :  4.62636e-05
 Reference value :  4.63569e-05
 Reference value :  4.65000e-05
 Reference value :  4.65001e-05
 Reference value :  4.65003e-05
 Reference value :  4.65012e-05
 Reference value :  4.65020e-05
 Reference value :  4.65029e-05
 Reference value :  4.65045e-05
 Reference value :  4.65055e-05
 Reference value :  4.65085e-05
 Reference value :  4.65112e-05
 Reference value :  4.65132e-05
 Reference value :  4.65152e-05
 Reference value :  4.65208e-05
 Reference value :  4.65417e-05
 Reference value :  4.65525e-05
 Reference value :  4.65682e-05
 Reference value :  4.65998e-05
 Reference value :  4.67501e-05
 Reference value :  4.67502e-05
 Reference value :  4.67504e-05
 Reference value :  4.67510e-05
 Reference value :  4.67514e-05
 Reference value :  4.67523e-05
 Reference value :  4.67534e-05
 Reference value :  4.67546e-05
 Reference value :  4.67559e-05
 Reference value :  4.67615e-05
 Reference value :  4.67857e-05
 Reference value :  4.69792e-05
 Reference value :  4.70000e-05
 Reference value :  4.70001e-05
 Reference value :  4.70002e-05
 Reference value :  4.70008e-05
 Reference value :  4.70015e-05
 Reference value :  4.70028e-05
 Reference value :  4.70039e-05
 Reference value :  4.70054e-05
 Reference value :  4.70060e-05
 Reference value :  4.70075e-05
 Reference value :  4.70103e-05
 Reference value :  4.70316e-05
 Reference value :  4.72501e-05
 Reference value :  4.72502e-05
 Reference value :  4.72503e-05
 Reference value :  4.72507e-05
 Reference value :  4.72514e-05
 Reference value :  4.72530e-05
 Reference value :  4.72540e-05
 Reference value :  4.72550e-05
 Reference value :  4.72566e-05
 Reference value :  4.72596e-05
 Reference value :  4.72749e-05
 Reference value :  4.73797e-05
 Reference value :  4.75000e-05
 Reference value :  4.75001e-05
 Reference value :  4.75002e-05
 Reference value :  4.75012e-05
 Reference value :  4.75020e-05
 Reference value :  4.75029e-05
 Reference value :  4.75039e-05
 Reference value :  4.75048e-05
 Reference value :  4.75066e-05
 Reference value :  4.75084e-05
 Reference value :  4.75102e-05
 Reference value :  4.75119e-05
 Reference value :  4.75136e-05
 Reference value :  4.75164e-05
[...]
 Reference value :  1.66002e-04
 Reference value :  1.66003e-04
 Reference value :  1.66005e-04
 Reference value :  1.66007e-04
 Reference value :  1.66009e-04
 Reference value :  1.66010e-04
 Reference value :  1.66017e-04
 Reference value :  1.66047e-04
 Reference value :  1.66250e-04
 Reference value :  1.66250e-04
 Reference value :  1.66250e-04
 Reference value :  1.66250e-04
 Reference value :  1.66251e-04
 Reference value :  1.66253e-04
 Reference value :  1.66254e-04
 Reference value :  1.66255e-04
 Reference value :  1.66257e-04
 Reference value :  1.66258e-04
 Reference value :  1.66261e-04
 Reference value :  1.66275e-04
 Reference value :  1.66500e-04
 Reference value :  1.66500e-04
 Reference value :  1.66500e-04
 Reference value :  1.66500e-04
 Reference value :  1.66501e-04
 Reference value :  1.66502e-04
 Reference value :  1.66502e-04
 Reference value :  1.66503e-04
 Reference value :  1.66504e-04
 Reference value :  1.66505e-04
 Reference value :  1.66508e-04
 Reference value :  1.66509e-04
 Reference value :  1.66510e-04
 Reference value :  1.66512e-04
 Reference value :  1.66514e-04
 Reference value :  1.66515e-04
 Reference value :  1.66519e-04
 Reference value :  1.66524e-04
 Reference value :  1.66530e-04
 Reference value :  1.66535e-04
 Reference value :  1.66546e-04
 Reference value :  1.66600e-04
 Reference value :  1.66708e-04
 Reference value :  1.66750e-04
 Reference value :  1.66750e-04
 Reference value :  1.66750e-04
 Reference value :  1.66751e-04
 Reference value :  1.66752e-04
 Reference value :  1.66753e-04
 Reference value :  1.66755e-04
 Reference value :  1.66762e-04
 Reference value :  1.67000e-04
 Reference value :  1.67000e-04
 Reference value :  1.67001e-04
 Reference value :  1.67001e-04
 Reference value :  1.67002e-04
 Reference value :  1.67003e-04
 Reference value :  1.67005e-04
 Reference value :  1.67006e-04
 Reference value :  1.67008e-04
 Reference value :  1.67010e-04
 Reference value :  1.67021e-04
 Reference value :  1.67153e-04
 Reference value :  1.67250e-04
 Reference value :  1.67250e-04
 Reference value :  1.67250e-04
 Reference value :  1.67251e-04
 Reference value :  1.67252e-04
 Reference value :  1.67253e-04
 Reference value :  1.67254e-04
 Reference value :  1.67256e-04
 Reference value :  1.67258e-04
 Reference value :  1.67270e-04
 Reference value :  1.67356e-04
 Reference value :  1.67500e-04
 Reference value :  1.67500e-04
 Reference value :  1.67500e-04
 Reference value :  1.67500e-04
 Reference value :  1.67501e-04
 Reference value :  1.67502e-04
 Reference value :  1.67503e-04
 Reference value :  1.67504e-04
 Reference value :  1.67505e-04
 Reference value :  1.67507e-04
 Reference value :  1.67510e-04
 Reference value :  1.67511e-04
 Reference value :  1.67513e-04
 Reference value :  1.67515e-04
 Reference value :  1.67517e-04
 Reference value :  1.67524e-04
 Reference value :  1.67545e-04
 Reference value :  1.67694e-04
 Reference value :  1.67750e-04
 Reference value :  1.67750e-04
 Reference value :  1.67751e-04
 Reference value :  1.67753e-04
 Reference value :  1.67754e-04
 Reference value :  1.67755e-04
 Reference value :  1.67757e-04
 Reference value :  1.67765e-04
 Reference value :  1.67815e-04
 Reference value :  1.68000e-04
 Reference value :  1.68000e-04
 Reference value :  1.68000e-04
 Reference value :  1.68000e-04
 Reference value :  1.68001e-04
 Reference value :  1.68002e-04
 Reference value :  1.68002e-04
 Reference value :  1.68003e-04
 Reference value :  1.68004e-04
 Reference value :  1.68006e-04
 Reference value :  1.68006e-04
 Reference value :  1.68008e-04
 Reference value :  1.68010e-04
 Reference value :  1.68015e-04
 Reference value :  1.68047e-04
 Reference value :  1.68250e-04
 Reference value :  1.68250e-04
 Reference value :  1.68250e-04
 Reference value :  1.68250e-04
 Reference value :  1.68251e-04
 Reference value :  1.68252e-04
 Reference value :  1.68253e-04
 Reference value :  1.68253e-04
 Reference value :  1.68254e-04
 Reference value :  1.68256e-04
 Reference value :  1.68260e-04
 Reference value :  1.68307e-04
 Reference value :  1.68500e-04
 Reference value :  1.68500e-04
 Reference value :  1.68500e-04
 Reference value :  1.68501e-04
 Reference value :  1.68501e-04
 Reference value :  1.68502e-04
 Reference value :  1.68503e-04
 Reference value :  1.68504e-04
 Reference value :  1.68506e-04
 Reference value :  1.68508e-04
 Reference value :  1.68511e-04
 Reference value :  1.68513e-04
 Reference value :  1.68515e-04
 Reference value :  1.68519e-04
 Reference value :  1.68536e-04
 Reference value :  1.68610e-04
 Reference value :  1.68750e-04
 Reference value :  1.68750e-04
 Reference value :  1.68750e-04
 Reference value :  1.68751e-04
 Reference value :  1.68751e-04
 Reference value :  1.68753e-04
 Reference value :  1.68754e-04
 Reference value :  1.68756e-04
 Reference value :  1.68766e-04
 Reference value :  1.68881e-04
 Reference value :  1.68947e-04
 Reference value :  1.69000e-04
 Reference value :  1.69000e-04
 Reference value :  1.69000e-04
 Reference value :  1.69000e-04
 Reference value :  1.69001e-04
 Reference value :  1.69002e-04
 Reference value :  1.69003e-04
 Reference value :  1.69005e-04
 Reference value :  1.69006e-04
 Reference value :  1.69008e-04
 Reference value :  1.69010e-04
 Reference value :  1.69022e-04
 Reference value :  1.69147e-04
 Reference value :  1.69250e-04
 Reference value :  1.69250e-04
 Reference value :  1.69251e-04
 Reference value :  1.69251e-04
 Reference value :  1.69253e-04
 Reference value :  1.69254e-04
 Reference value :  1.69255e-04
 Reference value :  1.69257e-04
 Reference value :  1.69260e-04
 Reference value :  1.69275e-04
 Reference value :  1.69499e-04
 Reference value :  1.69500e-04
 Reference value :  1.69500e-04
 Reference value :  1.69500e-04
 Reference value :  1.69501e-04
 Reference value :  1.69502e-04
 Reference value :  1.69502e-04
 Reference value :  1.69503e-04
 Reference value :  1.69504e-04
 Reference value :  1.69505e-04
 Reference value :  1.69507e-04
 Reference value :  1.69508e-04
 Reference value :  1.69510e-04
 Reference value :  1.69512e-04
 Reference value :  1.69515e-04
 Reference value :  1.69521e-04
 Reference value :  1.69528e-04
 Reference value :  1.69550e-04
 Reference value :  1.69627e-04
 Reference value :  1.69750e-04
 Reference value :  1.69750e-04
 Reference value :  1.69750e-04
 Reference value :  1.69751e-04
 Reference value :  1.69752e-04
 Reference value :  1.69753e-04
 Reference value :  1.69755e-04
 Reference value :  1.69758e-04
 Reference value :  1.69766e-04
 Reference value :  1.69822e-04
 Reference value :  1.70000e-04
 Reference value :  1.70000e-04
 Reference value :  1.70000e-04
 Reference value :  1.70000e-04
 Reference value :  1.70000e-04
 Reference value :  1.70000e-04
 Reference value :  1.70000e-04
 Reference value :  1.70001e-04
 Reference value :  1.70002e-04
 Reference value :  1.70003e-04
 Reference value :  1.70004e-04
 Reference value :  1.70004e-04
 Reference value :  1.70006e-04
 Reference value :  1.70009e-04
 Reference value :  1.70022e-04
 Reference value :  1.70026e-04
 Reference value :  1.70029e-04
 Reference value :  1.70034e-04
 Reference value :  1.70037e-04
 Reference value :  1.70040e-04
 Reference value :  1.70047e-04
 Reference value :  1.70065e-04
 Reference value :  1.70108e-04
 Reference value :  1.70179e-04
 Reference value :  1.70231e-04
 Reference value :  1.70243e-04
 Reference value :  1.70250e-04
 Reference value :  1.70250e-04
 Reference value :  1.70250e-04
 Reference value :  1.70251e-04
 Reference value :  1.70253e-04
 Reference value :  1.70254e-04
 Reference value :  1.70256e-04
 Reference value :  1.70265e-04
 Reference value :  1.70364e-04
 Reference value :  1.70500e-04
 Reference value :  1.70500e-04
 Reference value :  1.70500e-04
 Reference value :  1.70501e-04
 Reference value :  1.70502e-04
 Reference value :  1.70503e-04
 Reference value :  1.70505e-04
 Reference value :  1.70506e-04
 Reference value :  1.70509e-04
 Reference value :  1.70511e-04
 Reference value :  1.70514e-04
 Reference value :  1.70520e-04
 Reference value :  1.70580e-04
 Reference value :  1.70750e-04
 Reference value :  1.70750e-04
 Reference value :  1.70750e-04
 Reference value :  1.70751e-04
 Reference value :  1.70752e-04
 Reference value :  1.70753e-04
 Reference value :  1.70754e-04
 Reference value :  1.70755e-04
 Reference value :  1.70757e-04
 Reference value :  1.70760e-04
 Reference value :  1.70767e-04
 Reference value :  1.70849e-04
 Reference value :  1.71000e-04
 Reference value :  1.71000e-04
 Reference value :  1.71000e-04
 Reference value :  1.71001e-04
 Reference value :  1.71001e-04
 Reference value :  1.71002e-04
 Reference value :  1.71003e-04
 Reference value :  1.71004e-04
 Reference value :  1.71005e-04
 Reference value :  1.71007e-04
 Reference value :  1.71008e-04
 Reference value :  1.71010e-04
 Reference value :  1.71012e-04
 Reference value :  1.71014e-04
 Reference value :  1.71016e-04
 Reference value :  1.71025e-04
 Reference value :  1.71108e-04
 Reference value :  1.71250e-04
 Reference value :  1.71250e-04
 Reference value :  1.71250e-04
 Reference value :  1.71251e-04
 Reference value :  1.71252e-04
 Reference value :  1.71253e-04
 Reference value :  1.71254e-04
 Reference value :  1.71256e-04
 Reference value :  1.71265e-04
 Reference value :  1.71376e-04
 Reference value :  1.71500e-04
 Reference value :  1.71500e-04
 Reference value :  1.71500e-04
 Reference value :  1.71501e-04
 Reference value :  1.71502e-04
 Reference value :  1.71503e-04
 Reference value :  1.71505e-04
 Reference value :  1.71506e-04
 Reference value :  1.71507e-04
 Reference value :  1.71509e-04
 Reference value :  1.71511e-04
 Reference value :  1.71532e-04
 Reference value :  1.71750e-04
 Reference value :  1.71750e-04
 Reference value :  1.71750e-04
 Reference value :  1.71750e-04
 Reference value :  1.71751e-04
 Reference value :  1.71752e-04
 Reference value :  1.71753e-04
 Reference value :  1.71754e-04
 Reference value :  1.71756e-04
 Reference value :  1.71758e-04
 Reference value :  1.71764e-04
 Reference value :  1.71878e-04
 Reference value :  1.72000e-04
 Reference value :  1.72000e-04
 Reference value :  1.72000e-04
 Reference value :  1.72001e-04
 Reference value :  1.72002e-04
 Reference value :  1.72003e-04
 Reference value :  1.72004e-04
 Reference value :  1.72005e-04
 Reference value :  1.72007e-04
 Reference value :  1.72008e-04
 Reference value :  1.72010e-04
 Reference value :  1.72012e-04
 Reference value :  1.72015e-04
 Reference value :  1.72018e-04
 Reference value :  1.72047e-04
 Reference value :  1.72057e-04
 Reference value :  1.72073e-04
 Reference value :  1.72090e-04
 Reference value :  1.72123e-04
 Reference value :  1.72250e-04
 Reference value :  1.72250e-04
 Reference value :  1.72250e-04
 Reference value :  1.72250e-04
 Reference value :  1.72251e-04
 Reference value :  1.72251e-04
 Reference value :  1.72252e-04
 Reference value :  1.72253e-04
 Reference value :  1.72255e-04
 Reference value :  1.72257e-04
 Reference value :  1.72272e-04
 Reference value :  1.72483e-04
 Reference value :  1.72500e-04
 Reference value :  1.72500e-04
 Reference value :  1.72500e-04
 Reference value :  1.72501e-04
 Reference value :  1.72502e-04
 Reference value :  1.72503e-04
 Reference value :  1.72506e-04
 Reference value :  1.72507e-04
 Reference value :  1.72509e-04
 Reference value :  1.72516e-04
 Reference value :  1.72583e-04
 Reference value :  1.72750e-04
 Reference value :  1.72750e-04
 Reference value :  1.72750e-04
 Reference value :  1.72751e-04
 Reference value :  1.72752e-04
 Reference value :  1.72753e-04
 Reference value :  1.72754e-04
 Reference value :  1.72755e-04
 Reference value :  1.72757e-04
 Reference value :  1.72770e-04
 Reference value :  1.72956e-04
 Reference value :  1.73000e-04
 Reference value :  1.73000e-04
 Reference value :  1.73001e-04
 Reference value :  1.73002e-04
 Reference value :  1.73003e-04
 Reference value :  1.73004e-04
 Reference value :  1.73006e-04
 Reference value :  1.73008e-04
 Reference value :  1.73011e-04
 Reference value :  1.73013e-04
 Reference value :  1.73015e-04
 Reference value :  1.73019e-04
 Reference value :  1.73036e-04
 Reference value :  1.73101e-04
 Reference value :  1.73185e-04
 Reference value :  1.73250e-04
 Reference value :  1.73250e-04
 Reference value :  1.73250e-04
 Reference value :  1.73251e-04
 Reference value :  1.73252e-04
 Reference value :  1.73253e-04
 Reference value :  1.73255e-04
 Reference value :  1.73257e-04
 Reference value :  1.73272e-04
 Reference value :  1.73488e-04
 Reference value :  1.73500e-04
 Reference value :  1.73500e-04
 Reference value :  1.73501e-04
 Reference value :  1.73501e-04
 Reference value :  1.73502e-04
 Reference value :  1.73503e-04
 Reference value :  1.73504e-04
 Reference value :  1.73506e-04
 Reference value :  1.73509e-04
 Reference value :  1.73515e-04
 Reference value :  1.73652e-04
 Reference value :  1.73750e-04
 Reference value :  1.73750e-04
 Reference value :  1.73751e-04
 Reference value :  1.73753e-04
 Reference value :  1.73754e-04
 Reference value :  1.73755e-04
 Reference value :  1.73757e-04
 Reference value :  1.73770e-04
 Reference value :  1.73957e-04
 Reference value :  1.74000e-04
 Reference value :  1.74000e-04
 Reference value :  1.74000e-04
 Reference value :  1.74001e-04
 Reference value :  1.74002e-04
 Reference value :  1.74003e-04
 Reference value :  1.74004e-04
 Reference value :  1.74006e-04
 Reference value :  1.74008e-04
 Reference value :  1.74011e-04
 Reference value :  1.74013e-04
 Reference value :  1.74015e-04
 Reference value :  1.74019e-04
 Reference value :  1.74029e-04
 Reference value :  1.74035e-04
 Reference value :  1.74054e-04
 Reference value :  1.74067e-04
 Reference value :  1.74074e-04
 Reference value :  1.74087e-04
 Reference value :  1.74116e-04
 Reference value :  1.74216e-04
 Reference value :  1.74250e-04
 Reference value :  1.74250e-04
 Reference value :  1.74250e-04
 Reference value :  1.74250e-04
 Reference value :  1.74251e-04
 Reference value :  1.74252e-04
 Reference value :  1.74253e-04
 Reference value :  1.74253e-04
 Reference value :  1.74255e-04
 Reference value :  1.74256e-04
 Reference value :  1.74261e-04
 Reference value :  1.74286e-04
 Reference value :  1.74479e-04
 Reference value :  1.74500e-04
 Reference value :  1.74500e-04
 Reference value :  1.74500e-04
 Reference value :  1.74501e-04
 Reference value :  1.74502e-04
 Reference value :  1.74503e-04
 Reference value :  1.74505e-04
 Reference value :  1.74506e-04
 Reference value :  1.74507e-04
 Reference value :  1.74510e-04
 Reference value :  1.74522e-04
 Reference value :  1.74750e-04
 Reference value :  1.74750e-04
 Reference value :  1.74751e-04
 Reference value :  1.74752e-04
 Reference value :  1.74753e-04
 Reference value :  1.74755e-04
 Reference value :  1.74757e-04
 Reference value :  1.74760e-04
 Reference value :  1.74767e-04
 Reference value :  1.74820e-04
 Reference value :  1.75000e-04
 Reference value :  1.75000e-04
 Reference value :  1.75000e-04
 Reference value :  1.75000e-04
 Reference value :  1.75001e-04
 Reference value :  1.75002e-04
 Reference value :  1.75003e-04
 Reference value :  1.75004e-04
 Reference value :  1.75005e-04
 Reference value :  1.75007e-04
 Reference value :  1.75008e-04
 Reference value :  1.75010e-04
 Reference value :  1.75012e-04
 Reference value :  1.75014e-04
 Reference value :  1.75018e-04
 Reference value :  1.75023e-04
 Reference value :  1.75028e-04
 Reference value :  1.75032e-04
 Reference value :  1.75052e-04
 Reference value :  1.75117e-04
 Reference value :  1.75250e-04
 Reference value :  1.75250e-04
 Reference value :  1.75250e-04
 Reference value :  1.75251e-04
 Reference value :  1.75251e-04
 Reference value :  1.75253e-04
 Reference value :  1.75254e-04
 Reference value :  1.75255e-04
 Reference value :  1.75262e-04
 Reference value :  1.75372e-04
 Reference value :  1.75500e-04
 Reference value :  1.75500e-04
 Reference value :  1.75501e-04
 Reference value :  1.75502e-04
 Reference value :  1.75503e-04
 Reference value :  1.75506e-04
 Reference value :  1.75507e-04
 Reference value :  1.75510e-04
 Reference value :  1.75530e-04
 Reference value :  1.75750e-04
 Reference value :  1.75750e-04
 Reference value :  1.75751e-04
 Reference value :  1.75752e-04
 Reference value :  1.75753e-04
 Reference value :  1.75754e-04
 Reference value :  1.75757e-04
 Reference value :  1.75807e-04
 Reference value :  1.76000e-04
 Reference value :  1.76000e-04
 Reference value :  1.76001e-04
 Reference value :  1.76002e-04
 Reference value :  1.76003e-04
 Reference value :  1.76004e-04
 Reference value :  1.76006e-04
 Reference value :  1.76008e-04
 Reference value :  1.76011e-04
 Reference value :  1.76013e-04
 Reference value :  1.76015e-04
 Reference value :  1.76019e-04
 Reference value :  1.76036e-04
 Reference value :  1.76084e-04
 Reference value :  1.76250e-04
 Reference value :  1.76250e-04
 Reference value :  1.76250e-04
 Reference value :  1.76251e-04
 Reference value :  1.76251e-04
 Reference value :  1.76252e-04
 Reference value :  1.76253e-04
 Reference value :  1.76255e-04
 Reference value :  1.76262e-04
 Reference value :  1.76488e-04
 Reference value :  1.76500e-04
 Reference value :  1.76500e-04
 Reference value :  1.76501e-04
 Reference value :  1.76502e-04
 Reference value :  1.76503e-04
 Reference value :  1.76505e-04
 Reference value :  1.76506e-04
 Reference value :  1.76508e-04
 Reference value :  1.76512e-04
 Reference value :  1.76547e-04
 Reference value :  1.76750e-04
 Reference value :  1.76750e-04
 Reference value :  1.76751e-04
 Reference value :  1.76752e-04
 Reference value :  1.76753e-04
 Reference value :  1.76755e-04
 Reference value :  1.76760e-04
 Reference value :  1.76857e-04
 Reference value :  1.77000e-04
 Reference value :  1.77000e-04
 Reference value :  1.77000e-04
 Reference value :  1.77001e-04
 Reference value :  1.77002e-04
 Reference value :  1.77003e-04
 Reference value :  1.77004e-04
 Reference value :  1.77005e-04
 Reference value :  1.77007e-04
 Reference value :  1.77011e-04
 Reference value :  1.77013e-04
 Reference value :  1.77015e-04
 Reference value :  1.77021e-04
 Reference value :  1.77050e-04
 Reference value :  1.77250e-04
 Reference value :  1.77250e-04
 Reference value :  1.77250e-04
 Reference value :  1.77251e-04
 Reference value :  1.77251e-04
 Reference value :  1.77252e-04
 Reference value :  1.77253e-04
 Reference value :  1.77255e-04
 Reference value :  1.77259e-04
 Reference value :  1.77315e-04
 Reference value :  1.77500e-04
 Reference value :  1.77500e-04
 Reference value :  1.77501e-04
 Reference value :  1.77502e-04
 Reference value :  1.77503e-04
 Reference value :  1.77504e-04
 Reference value :  1.77506e-04
 Reference value :  1.77506e-04
 Reference value :  1.77508e-04
 Reference value :  1.77510e-04
 Reference value :  1.77529e-04
 Reference value :  1.77750e-04
 Reference value :  1.77750e-04
 Reference value :  1.77750e-04
 Reference value :  1.77751e-04
 Reference value :  1.77753e-04
 Reference value :  1.77754e-04
 Reference value :  1.77755e-04
 Reference value :  1.77757e-04
 Reference value :  1.77770e-04
 Reference value :  1.77957e-04
 Reference value :  1.78000e-04
 Reference value :  1.78000e-04
 Reference value :  1.78002e-04
 Reference value :  1.78003e-04
 Reference value :  1.78005e-04
 Reference value :  1.78006e-04
 Reference value :  1.78008e-04
 Reference value :  1.78016e-04
 Reference value :  1.78233e-04
 Reference value :  1.78250e-04
 Reference value :  1.78250e-04
 Reference value :  1.78251e-04
 Reference value :  1.78252e-04
 Reference value :  1.78253e-04
 Reference value :  1.78255e-04
 Reference value :  1.78256e-04
 Reference value :  1.78262e-04
 Reference value :  1.78322e-04
No. of Data Rows : 26037
ngspice-44 done
