
Note: Compatibility modes selected: hs a


Circuit: ** sch_path: /home/samantha/cace/sar-adc-using-sky130-pdk/runs/run_2025-09-03_21-34-21/parameters/sampling_rate/run_07/sampling_rate.sch

option SCALE: Scale is set to 1e-06 for instance and model parameters
option SCALE: Scale is set to 1e-06 for instance and model parameters
option SCALE: Scale is set to 1e-06 for instance and model parameters
option SCALE: Scale is set to 1e-06 for instance and model parameters
Doing analysis at TEMP = 27.000000 and TNOM = 27.000000

Using KLU as Direct Linear Solver
Operating point simulation skipped by 'uic',
  now using transient initial conditions.
 Reference value :  1.00000e-12
 Reference value :  1.02800e-12
 Reference value :  1.19600e-12
 Reference value :  1.70218e-12
 Reference value :  3.22244e-12
 Reference value :  6.52983e-12
 Reference value :  2.08149e-11
 Reference value :  6.21770e-11
 Reference value :  1.05515e-10
 Reference value :  1.82724e-10
 Reference value :  4.47442e-10
 Reference value :  9.78800e-10
 Reference value :  1.83486e-09
 Reference value :  3.13548e-09
 Reference value :  4.96931e-09
 Reference value :  5.94832e-09
 Reference value :  7.28678e-09
 Reference value :  7.93547e-09
 Reference value :  1.08135e-08
 Reference value :  1.17891e-08
 Reference value :  1.26196e-08
 Reference value :  1.43700e-08
 Reference value :  2.00256e-08
 Reference value :  2.69507e-08
 Reference value :  3.47078e-08
 Reference value :  5.62860e-08
 Reference value :  9.71929e-08
 Reference value :  2.40213e-07
 Reference value :  2.50110e-07
 Reference value :  2.50170e-07
 Reference value :  2.50208e-07
 Reference value :  2.50254e-07
 Reference value :  2.50389e-07
 Reference value :  2.50542e-07
 Reference value :  2.50680e-07
 Reference value :  2.50957e-07
 Reference value :  2.51285e-07
 Reference value :  2.51695e-07
 Reference value :  2.52120e-07
 Reference value :  2.52676e-07
 Reference value :  2.53257e-07
 Reference value :  2.53738e-07
 Reference value :  2.54261e-07
 Reference value :  2.54793e-07
 Reference value :  2.55485e-07
 Reference value :  2.56198e-07
 Reference value :  2.57477e-07
 Reference value :  2.58753e-07
 Reference value :  2.61165e-07
 Reference value :  2.64006e-07
 Reference value :  2.69688e-07
 Reference value :  2.78399e-07
 Reference value :  2.89993e-07
 Reference value :  3.00575e-07
 Reference value :  3.08616e-07
 Reference value :  3.16134e-07
 Reference value :  3.22518e-07
 Reference value :  3.35707e-07
 Reference value :  3.56188e-07
 Reference value :  3.98034e-07
 Reference value :  5.00000e-07
 Reference value :  5.00030e-07
 Reference value :  5.00100e-07
 Reference value :  5.00156e-07
 Reference value :  5.00219e-07
 Reference value :  5.00337e-07
 Reference value :  5.00513e-07
 Reference value :  5.00822e-07
 Reference value :  5.01183e-07
 Reference value :  5.01525e-07
 Reference value :  5.02326e-07
 Reference value :  5.02807e-07
 Reference value :  5.03328e-07
 Reference value :  5.03887e-07
 Reference value :  5.04619e-07
 Reference value :  5.05348e-07
 Reference value :  5.06377e-07
 Reference value :  5.07515e-07
 Reference value :  5.08625e-07
 Reference value :  5.09705e-07
 Reference value :  5.11135e-07
 Reference value :  5.12454e-07
 Reference value :  5.15584e-07
 Reference value :  5.20719e-07
 Reference value :  5.33732e-07
 Reference value :  5.80417e-07
 Reference value :  7.50110e-07
 Reference value :  7.50170e-07
 Reference value :  7.50208e-07
 Reference value :  7.50256e-07
 Reference value :  7.50320e-07
 Reference value :  7.50584e-07
 Reference value :  7.51288e-07
 Reference value :  7.51723e-07
 Reference value :  7.52148e-07
 Reference value :  7.52768e-07
 Reference value :  7.53298e-07
 Reference value :  7.54432e-07
 Reference value :  7.54995e-07
 Reference value :  7.55697e-07
 Reference value :  7.57278e-07
 Reference value :  7.58086e-07
 Reference value :  7.59408e-07
 Reference value :  7.60791e-07
 Reference value :  7.63272e-07
 Reference value :  7.72582e-07
 Reference value :  7.84995e-07
 Reference value :  8.59475e-07
 Reference value :  1.00000e-06
 Reference value :  1.00003e-06
 Reference value :  1.00007e-06
 Reference value :  1.00011e-06
 Reference value :  1.00016e-06
 Reference value :  1.00022e-06
 Reference value :  1.00051e-06
 Reference value :  1.00082e-06
 Reference value :  1.00157e-06
 Reference value :  1.00200e-06
 Reference value :  1.00289e-06
 Reference value :  1.00341e-06
 Reference value :  1.00388e-06
 Reference value :  1.00480e-06
 Reference value :  1.00593e-06
 Reference value :  1.00660e-06
 Reference value :  1.00757e-06
 Reference value :  1.00848e-06
 Reference value :  1.00933e-06
 Reference value :  1.01021e-06
 Reference value :  1.01119e-06
 Reference value :  1.01194e-06
 Reference value :  1.01269e-06
 Reference value :  1.01352e-06
 Reference value :  1.01439e-06
 Reference value :  1.01618e-06
 Reference value :  1.01872e-06
 Reference value :  1.02355e-06
 Reference value :  1.03725e-06
 Reference value :  1.05305e-06
 Reference value :  1.08466e-06
 Reference value :  1.11391e-06
 Reference value :  1.14308e-06
 Reference value :  1.16143e-06
 Reference value :  1.17689e-06
 Reference value :  1.19269e-06
 Reference value :  1.23910e-06
 Reference value :  1.25011e-06
 Reference value :  1.25017e-06
 Reference value :  1.25020e-06
 Reference value :  1.25022e-06
 Reference value :  1.25026e-06
 Reference value :  1.25045e-06
 Reference value :  1.25082e-06
 Reference value :  1.25129e-06
 Reference value :  1.25215e-06
 Reference value :  1.25277e-06
 Reference value :  1.25333e-06
 Reference value :  1.25394e-06
 Reference value :  1.25514e-06
 Reference value :  1.25607e-06
 Reference value :  1.25715e-06
 Reference value :  1.26109e-06
 Reference value :  1.28776e-06
 Reference value :  1.37651e-06
 Reference value :  1.50000e-06
 Reference value :  1.50003e-06
 Reference value :  1.50010e-06
 Reference value :  1.50011e-06
 Reference value :  1.50012e-06
 Reference value :  1.50022e-06
 Reference value :  1.50034e-06
 Reference value :  1.50051e-06
 Reference value :  1.50082e-06
 Reference value :  1.50118e-06
 Reference value :  1.50158e-06
 Reference value :  1.50202e-06
 Reference value :  1.50242e-06
 Reference value :  1.50290e-06
 Reference value :  1.50342e-06
 Reference value :  1.50399e-06
 Reference value :  1.50474e-06
 Reference value :  1.50554e-06
 Reference value :  1.50619e-06
 Reference value :  1.50692e-06
 Reference value :  1.50765e-06
 Reference value :  1.50848e-06
 Reference value :  1.50942e-06
 Reference value :  1.51254e-06
 Reference value :  1.52300e-06
 Reference value :  1.56019e-06
 Reference value :  1.70429e-06
 Reference value :  1.75011e-06
 Reference value :  1.75017e-06
 Reference value :  1.75022e-06
 Reference value :  1.75032e-06
 Reference value :  1.75058e-06
 Reference value :  1.75082e-06
 Reference value :  1.75129e-06
 Reference value :  1.75215e-06
 Reference value :  1.75277e-06
 Reference value :  1.75331e-06
 Reference value :  1.75390e-06
 Reference value :  1.75445e-06
 Reference value :  1.75501e-06
 Reference value :  1.75571e-06
 Reference value :  1.75804e-06
 Reference value :  1.76314e-06
 Reference value :  1.77934e-06
 Reference value :  1.80094e-06
 Reference value :  2.00000e-06
 Reference value :  2.00003e-06
 Reference value :  2.00010e-06
 Reference value :  2.00012e-06
 Reference value :  2.00022e-06
 Reference value :  2.00051e-06
 Reference value :  2.00082e-06
 Reference value :  2.00158e-06
 Reference value :  2.00201e-06
 Reference value :  2.00289e-06
 Reference value :  2.00396e-06
 Reference value :  2.00500e-06
 Reference value :  2.00636e-06
 Reference value :  2.00715e-06
 Reference value :  2.01002e-06
 Reference value :  2.01122e-06
 Reference value :  2.01220e-06
 Reference value :  2.01419e-06
 Reference value :  2.01513e-06
 Reference value :  2.01722e-06
 Reference value :  2.02039e-06
 Reference value :  2.02785e-06
 Reference value :  2.04812e-06
 Reference value :  2.09885e-06
 Reference value :  2.13200e-06
 Reference value :  2.20898e-06
 Reference value :  2.25010e-06
 Reference value :  2.25013e-06
 Reference value :  2.25020e-06
 Reference value :  2.25022e-06
 Reference value :  2.25032e-06
 Reference value :  2.25058e-06
 Reference value :  2.25129e-06
 Reference value :  2.25215e-06
 Reference value :  2.25277e-06
 Reference value :  2.25333e-06
 Reference value :  2.25393e-06
 Reference value :  2.25514e-06
 Reference value :  2.25607e-06
 Reference value :  2.25715e-06
 Reference value :  2.26107e-06
 Reference value :  2.27297e-06
 Reference value :  2.31704e-06
 Reference value :  2.39483e-06
 Reference value :  2.44081e-06
 Reference value :  2.50001e-06
 Reference value :  2.50007e-06
 Reference value :  2.50011e-06
 Reference value :  2.50016e-06
 Reference value :  2.50034e-06
 Reference value :  2.50082e-06
 Reference value :  2.50118e-06
 Reference value :  2.50158e-06
 Reference value :  2.50201e-06
 Reference value :  2.50242e-06
 Reference value :  2.50290e-06
 Reference value :  2.50342e-06
 Reference value :  2.50399e-06
 Reference value :  2.50475e-06
 Reference value :  2.50554e-06
 Reference value :  2.50619e-06
 Reference value :  2.50692e-06
 Reference value :  2.50766e-06
 Reference value :  2.50848e-06
 Reference value :  2.50943e-06
 Reference value :  2.51256e-06
 Reference value :  2.52277e-06
 Reference value :  2.55851e-06
 Reference value :  2.69574e-06
 Reference value :  2.75010e-06
 Reference value :  2.75013e-06
 Reference value :  2.75017e-06
 Reference value :  2.75020e-06
 Reference value :  2.75022e-06
 Reference value :  2.75026e-06
 Reference value :  2.75032e-06
 Reference value :  2.75045e-06
 Reference value :  2.75082e-06
 Reference value :  2.75129e-06
 Reference value :  2.75215e-06
 Reference value :  2.75277e-06
 Reference value :  2.75331e-06
 Reference value :  2.75445e-06
 Reference value :  2.75501e-06
 Reference value :  2.75571e-06
 Reference value :  2.75649e-06
 Reference value :  2.75804e-06
 Reference value :  2.76314e-06
 Reference value :  2.76853e-06
 Reference value :  2.80089e-06
 Reference value :  2.93033e-06
 Reference value :  3.00001e-06
 Reference value :  3.00003e-06
 Reference value :  3.00010e-06
 Reference value :  3.00012e-06
 Reference value :  3.00022e-06
 Reference value :  3.00051e-06
 Reference value :  3.00082e-06
 Reference value :  3.00158e-06
 Reference value :  3.00242e-06
 Reference value :  3.00289e-06
 Reference value :  3.00396e-06
 Reference value :  3.00450e-06
 Reference value :  3.00500e-06
 Reference value :  3.00555e-06
 Reference value :  3.00715e-06
 Reference value :  3.00863e-06
 Reference value :  3.01002e-06
 Reference value :  3.01122e-06
 Reference value :  3.01220e-06
 Reference value :  3.01419e-06
 Reference value :  3.01513e-06
 Reference value :  3.01722e-06
 Reference value :  3.02039e-06
 Reference value :  3.02767e-06
 Reference value :  3.03132e-06
 Reference value :  3.03777e-06
 Reference value :  3.04148e-06
 Reference value :  3.04402e-06
 Reference value :  3.04979e-06
 Reference value :  3.05814e-06
 Reference value :  3.06385e-06
 Reference value :  3.06978e-06
 Reference value :  3.07664e-06
 Reference value :  3.09625e-06
 Reference value :  3.14820e-06
 Reference value :  3.21123e-06
 Reference value :  3.25011e-06
 Reference value :  3.25013e-06
 Reference value :  3.25017e-06
 Reference value :  3.25020e-06
 Reference value :  3.25022e-06
 Reference value :  3.25026e-06
 Reference value :  3.25045e-06
 Reference value :  3.25082e-06
 Reference value :  3.25172e-06
 Reference value :  3.25215e-06
 Reference value :  3.25277e-06
 Reference value :  3.25326e-06
 Reference value :  3.25436e-06
 Reference value :  3.25492e-06
 Reference value :  3.25677e-06
 Reference value :  3.26036e-06
 Reference value :  3.26986e-06
 Reference value :  3.30641e-06
 Reference value :  3.45258e-06
 Reference value :  3.50001e-06
 Reference value :  3.50003e-06
 Reference value :  3.50010e-06
 Reference value :  3.50011e-06
 Reference value :  3.50016e-06
 Reference value :  3.50022e-06
 Reference value :  3.50051e-06
 Reference value :  3.50082e-06
 Reference value :  3.50118e-06
 Reference value :  3.50154e-06
 Reference value :  3.50195e-06
 Reference value :  3.50235e-06
 Reference value :  3.50282e-06
 Reference value :  3.50333e-06
 Reference value :  3.50389e-06
 Reference value :  3.50465e-06
 Reference value :  3.50537e-06
 Reference value :  3.50595e-06
 Reference value :  3.50665e-06
 Reference value :  3.50740e-06
 Reference value :  3.50822e-06
 Reference value :  3.50922e-06
 Reference value :  3.51231e-06
 Reference value :  3.52413e-06
 Reference value :  3.63204e-06
 Reference value :  3.75011e-06
 Reference value :  3.75013e-06
 Reference value :  3.75020e-06
 Reference value :  3.75022e-06
 Reference value :  3.75032e-06
 Reference value :  3.75058e-06
 Reference value :  3.75129e-06
 Reference value :  3.75215e-06
 Reference value :  3.75330e-06
 Reference value :  3.75450e-06
 Reference value :  3.75575e-06
 Reference value :  3.75737e-06
 Reference value :  3.75949e-06
 Reference value :  3.76349e-06
 Reference value :  3.77348e-06
 Reference value :  3.81345e-06
 Reference value :  3.97330e-06
 Reference value :  4.00001e-06
 Reference value :  4.00007e-06
 Reference value :  4.00011e-06
 Reference value :  4.00016e-06
 Reference value :  4.00034e-06
 Reference value :  4.00082e-06
 Reference value :  4.00118e-06
 Reference value :  4.00158e-06
 Reference value :  4.00242e-06
 Reference value :  4.00290e-06
 Reference value :  4.00342e-06
 Reference value :  4.00390e-06
 Reference value :  4.00483e-06
 Reference value :  4.00533e-06
 Reference value :  4.00596e-06
 Reference value :  4.00767e-06
 Reference value :  4.00847e-06
 Reference value :  4.00932e-06
 Reference value :  4.01017e-06
 Reference value :  4.01112e-06
 Reference value :  4.01190e-06
 Reference value :  4.01354e-06
 Reference value :  4.01530e-06
 Reference value :  4.01626e-06
 Reference value :  4.01886e-06
 Reference value :  4.02052e-06
 Reference value :  4.02800e-06
 Reference value :  4.04885e-06
 Reference value :  4.06126e-06
 Reference value :  4.07440e-06
 Reference value :  4.10364e-06
 Reference value :  4.11845e-06
 Reference value :  4.13198e-06
 Reference value :  4.14448e-06
 Reference value :  4.15515e-06
 Reference value :  4.16671e-06
 Reference value :  4.22123e-06
 Reference value :  4.25010e-06
 Reference value :  4.25011e-06
 Reference value :  4.25013e-06
 Reference value :  4.25017e-06
 Reference value :  4.25020e-06
 Reference value :  4.25021e-06
 Reference value :  4.25026e-06
 Reference value :  4.25032e-06
 Reference value :  4.25053e-06
 Reference value :  4.25071e-06
 Reference value :  4.25096e-06
 Reference value :  4.25140e-06
 Reference value :  4.25226e-06
 Reference value :  4.25290e-06
 Reference value :  4.25352e-06
 Reference value :  4.25413e-06
 Reference value :  4.25476e-06
 Reference value :  4.25541e-06
 Reference value :  4.25766e-06
 Reference value :  4.26208e-06
 Reference value :  4.27611e-06
 Reference value :  4.33224e-06
 Reference value :  4.50000e-06
 Reference value :  4.50001e-06
 Reference value :  4.50007e-06
 Reference value :  4.50011e-06
 Reference value :  4.50016e-06
 Reference value :  4.50035e-06
 Reference value :  4.50136e-06
 Reference value :  4.50230e-06
 Reference value :  4.50336e-06
 Reference value :  4.50456e-06
 Reference value :  4.50590e-06
 Reference value :  4.50658e-06
 Reference value :  4.50742e-06
 Reference value :  4.50914e-06
 Reference value :  4.51015e-06
 Reference value :  4.51680e-06
 Reference value :  4.53358e-06
 Reference value :  4.58914e-06
 Reference value :  4.75010e-06
 Reference value :  4.75011e-06
 Reference value :  4.75017e-06
 Reference value :  4.75021e-06
 Reference value :  4.75026e-06
 Reference value :  4.75032e-06
 Reference value :  4.75039e-06
 Reference value :  4.75071e-06
 Reference value :  4.75140e-06
 Reference value :  4.75180e-06
 Reference value :  4.75290e-06
 Reference value :  4.75354e-06
 Reference value :  4.75414e-06
 Reference value :  4.75471e-06
 Reference value :  4.75531e-06
 Reference value :  4.75607e-06
 Reference value :  4.75770e-06
 Reference value :  4.75857e-06
 Reference value :  4.76163e-06
 Reference value :  4.76449e-06
 Reference value :  4.76858e-06
 Reference value :  4.79316e-06
 Reference value :  4.88840e-06
 Reference value :  5.00000e-06
 Reference value :  5.00003e-06
 Reference value :  5.00007e-06
 Reference value :  5.00011e-06
 Reference value :  5.00012e-06
 Reference value :  5.00016e-06
 Reference value :  5.00022e-06
 Reference value :  5.00035e-06
 Reference value :  5.00090e-06
 Reference value :  5.00136e-06
 Reference value :  5.00183e-06
 Reference value :  5.00230e-06
 Reference value :  5.00281e-06
 Reference value :  5.00338e-06
 Reference value :  5.00393e-06
 Reference value :  5.00445e-06
 Reference value :  5.00491e-06
 Reference value :  5.00544e-06
 Reference value :  5.00691e-06
 Reference value :  5.00796e-06
 Reference value :  5.00876e-06
 Reference value :  5.00962e-06
 Reference value :  5.01050e-06
 Reference value :  5.01146e-06
 Reference value :  5.01215e-06
 Reference value :  5.01278e-06
 Reference value :  5.01359e-06
 Reference value :  5.01444e-06
 Reference value :  5.01628e-06
 Reference value :  5.01896e-06
 Reference value :  5.02079e-06
 Reference value :  5.02446e-06
 Reference value :  5.02856e-06
 Reference value :  5.03764e-06
 Reference value :  5.04288e-06
 Reference value :  5.04728e-06
 Reference value :  5.05150e-06
 Reference value :  5.06036e-06
 Reference value :  5.06701e-06
 Reference value :  5.07545e-06
 Reference value :  5.08866e-06
 Reference value :  5.10715e-06
 Reference value :  5.13733e-06
 Reference value :  5.16618e-06
 Reference value :  5.19386e-06
 Reference value :  5.22096e-06
 Reference value :  5.24379e-06
 Reference value :  5.25011e-06
 Reference value :  5.25013e-06
 Reference value :  5.25017e-06
 Reference value :  5.25020e-06
 Reference value :  5.25021e-06
 Reference value :  5.25022e-06
 Reference value :  5.25026e-06
 Reference value :  5.25032e-06
 Reference value :  5.25039e-06
 Reference value :  5.25053e-06
 Reference value :  5.25095e-06
 Reference value :  5.25136e-06
 Reference value :  5.25223e-06
 Reference value :  5.25346e-06
 Reference value :  5.25406e-06
 Reference value :  5.25467e-06
 Reference value :  5.25530e-06
 Reference value :  5.25619e-06
 Reference value :  5.25742e-06
 Reference value :  5.25910e-06
 Reference value :  5.26590e-06
 Reference value :  5.28877e-06
 Reference value :  5.30449e-06
 Reference value :  5.33556e-06
 Reference value :  5.38952e-06
 Reference value :  5.47536e-06
 Reference value :  5.50001e-06
 Reference value :  5.50003e-06
 Reference value :  5.50007e-06
 Reference value :  5.50010e-06
 Reference value :  5.50012e-06
 Reference value :  5.50022e-06
 Reference value :  5.50035e-06
 Reference value :  5.50090e-06
 Reference value :  5.50136e-06
 Reference value :  5.50183e-06
 Reference value :  5.50230e-06
 Reference value :  5.50281e-06
 Reference value :  5.50336e-06
 Reference value :  5.50393e-06
 Reference value :  5.50455e-06
 Reference value :  5.50533e-06
 Reference value :  5.50589e-06
 Reference value :  5.50657e-06
 Reference value :  5.50749e-06
 Reference value :  5.50832e-06
 Reference value :  5.50924e-06
 Reference value :  5.51031e-06
 Reference value :  5.51384e-06
 Reference value :  5.51720e-06
 Reference value :  5.53438e-06
 Reference value :  5.55321e-06
 Reference value :  5.59087e-06
 Reference value :  5.75010e-06
 Reference value :  5.75011e-06
 Reference value :  5.75017e-06
 Reference value :  5.75021e-06
 Reference value :  5.75026e-06
 Reference value :  5.75032e-06
 Reference value :  5.75039e-06
 Reference value :  5.75053e-06
 Reference value :  5.75096e-06
 Reference value :  5.75140e-06
 Reference value :  5.75180e-06
 Reference value :  5.75227e-06
 Reference value :  5.75290e-06
 Reference value :  5.75354e-06
 Reference value :  5.75414e-06
 Reference value :  5.75471e-06
 Reference value :  5.75531e-06
 Reference value :  5.75607e-06
 Reference value :  5.75770e-06
 Reference value :  5.76019e-06
 Reference value :  5.76450e-06
 Reference value :  5.77688e-06
 Reference value :  5.82517e-06
 Reference value :  5.88873e-06
 Reference value :  6.00001e-06
 Reference value :  6.00007e-06
 Reference value :  6.00011e-06
 Reference value :  6.00012e-06
 Reference value :  6.00016e-06
 Reference value :  6.00022e-06
 Reference value :  6.00035e-06
 Reference value :  6.00090e-06
 Reference value :  6.00136e-06
 Reference value :  6.00183e-06
 Reference value :  6.00230e-06
 Reference value :  6.00281e-06
 Reference value :  6.00338e-06
 Reference value :  6.00393e-06
 Reference value :  6.00491e-06
 Reference value :  6.00544e-06
 Reference value :  6.00618e-06
 Reference value :  6.00691e-06
 Reference value :  6.00796e-06
 Reference value :  6.00876e-06
 Reference value :  6.00962e-06
 Reference value :  6.01051e-06
 Reference value :  6.01147e-06
 Reference value :  6.01216e-06
 Reference value :  6.01362e-06
 Reference value :  6.01533e-06
 Reference value :  6.01634e-06
 Reference value :  6.01903e-06
 Reference value :  6.02298e-06
 Reference value :  6.02453e-06
 Reference value :  6.02778e-06
 Reference value :  6.03141e-06
 Reference value :  6.04102e-06
 Reference value :  6.07161e-06
 Reference value :  6.16457e-06
 Reference value :  6.25010e-06
 Reference value :  6.25013e-06
 Reference value :  6.25020e-06
 Reference value :  6.25022e-06
 Reference value :  6.25032e-06
 Reference value :  6.25053e-06
 Reference value :  6.25095e-06
 Reference value :  6.25178e-06
 Reference value :  6.25285e-06
 Reference value :  6.25349e-06
 Reference value :  6.25405e-06
 Reference value :  6.25522e-06
 Reference value :  6.25714e-06
 Reference value :  6.26558e-06
 Reference value :  6.29139e-06
 Reference value :  6.39327e-06
 Reference value :  6.50003e-06
 Reference value :  6.50010e-06
 Reference value :  6.50012e-06
 Reference value :  6.50016e-06
 Reference value :  6.50035e-06
 Reference value :  6.50090e-06
 Reference value :  6.50183e-06
 Reference value :  6.50281e-06
 Reference value :  6.50340e-06
 Reference value :  6.50458e-06
 Reference value :  6.50595e-06
 Reference value :  6.50747e-06
 Reference value :  6.51024e-06
 Reference value :  6.51675e-06
 Reference value :  6.54899e-06
 Reference value :  6.75010e-06
 Reference value :  6.75013e-06
 Reference value :  6.75020e-06
 Reference value :  6.75026e-06
 Reference value :  6.75039e-06
 Reference value :  6.75071e-06
 Reference value :  6.75140e-06
 Reference value :  6.75227e-06
 Reference value :  6.75290e-06
 Reference value :  6.75353e-06
 Reference value :  6.75472e-06
 Reference value :  6.75607e-06
 Reference value :  6.75857e-06
 Reference value :  6.76460e-06
 Reference value :  6.77222e-06
 Reference value :  6.81795e-06
 Reference value :  7.00000e-06
 Reference value :  7.00003e-06
 Reference value :  7.00010e-06
 Reference value :  7.00012e-06
 Reference value :  7.00022e-06
 Reference value :  7.00057e-06
 Reference value :  7.00136e-06
 Reference value :  7.00230e-06
 Reference value :  7.00339e-06
 Reference value :  7.00445e-06
 Reference value :  7.00492e-06
 Reference value :  7.00617e-06
 Reference value :  7.00840e-06
 Reference value :  7.00990e-06
 Reference value :  7.01119e-06
 Reference value :  7.01226e-06
 Reference value :  7.01435e-06
 Reference value :  7.01535e-06
 Reference value :  7.01639e-06
 Reference value :  7.01919e-06
 Reference value :  7.02421e-06
 Reference value :  7.03688e-06
 Reference value :  7.07703e-06
 Reference value :  7.24226e-06
 Reference value :  7.25011e-06
 Reference value :  7.25017e-06
 Reference value :  7.25022e-06
 Reference value :  7.25032e-06
 Reference value :  7.25053e-06
 Reference value :  7.25095e-06
 Reference value :  7.25178e-06
 Reference value :  7.25285e-06
 Reference value :  7.25349e-06
 Reference value :  7.25406e-06
 Reference value :  7.25524e-06
 Reference value :  7.25900e-06
 Reference value :  7.26572e-06
 Reference value :  7.29180e-06
 Reference value :  7.50000e-06
 Reference value :  7.50003e-06
 Reference value :  7.50010e-06
 Reference value :  7.50012e-06
 Reference value :  7.50022e-06
 Reference value :  7.50057e-06
 Reference value :  7.50136e-06
 Reference value :  7.50230e-06
 Reference value :  7.50281e-06
 Reference value :  7.50395e-06
 Reference value :  7.50458e-06
 Reference value :  7.50536e-06
 Reference value :  7.50594e-06
 Reference value :  7.50745e-06
 Reference value :  7.50919e-06
 Reference value :  7.51023e-06
 Reference value :  7.51361e-06
 Reference value :  7.52251e-06
 Reference value :  7.54943e-06
 Reference value :  7.65105e-06
 Reference value :  7.75011e-06
 Reference value :  7.75017e-06
 Reference value :  7.75021e-06
 Reference value :  7.75026e-06
 Reference value :  7.75032e-06
 Reference value :  7.75053e-06
 Reference value :  7.75096e-06
 Reference value :  7.75140e-06
 Reference value :  7.75180e-06
 Reference value :  7.75227e-06
 Reference value :  7.75290e-06
 Reference value :  7.75414e-06
 Reference value :  7.75471e-06
 Reference value :  7.75606e-06
 Reference value :  7.75855e-06
 Reference value :  7.76455e-06
 Reference value :  7.78726e-06
 Reference value :  7.87808e-06
 Reference value :  8.00000e-06
 Reference value :  8.00003e-06
 Reference value :  8.00010e-06
 Reference value :  8.00012e-06
 Reference value :  8.00022e-06
 Reference value :  8.00035e-06
 Reference value :  8.00057e-06
 Reference value :  8.00136e-06
 Reference value :  8.00230e-06
 Reference value :  8.00281e-06
 Reference value :  8.00339e-06
 Reference value :  8.00446e-06
 Reference value :  8.00493e-06
 Reference value :  8.00546e-06
 Reference value :  8.00619e-06
 Reference value :  8.00694e-06
 Reference value :  8.00777e-06
 Reference value :  8.00982e-06
 Reference value :  8.01399e-06
 Reference value :  8.01826e-06
 Reference value :  8.04039e-06
 Reference value :  8.12647e-06
 Reference value :  8.25010e-06
 Reference value :  8.25011e-06
 Reference value :  8.25017e-06
 Reference value :  8.25021e-06
 Reference value :  8.25022e-06
 Reference value :  8.25026e-06
 Reference value :  8.25045e-06
 Reference value :  8.25058e-06
 Reference value :  8.25079e-06
 Reference value :  8.25119e-06
 Reference value :  8.25160e-06
 Reference value :  8.25255e-06
 Reference value :  8.25326e-06
 Reference value :  8.25400e-06
 Reference value :  8.25475e-06
 Reference value :  8.25570e-06
 Reference value :  8.25813e-06
 Reference value :  8.26281e-06
 Reference value :  8.26764e-06
 Reference value :  8.28591e-06
 Reference value :  8.33615e-06
 Reference value :  8.50000e-06
 Reference value :  8.50003e-06
 Reference value :  8.50010e-06
 Reference value :  8.50012e-06
 Reference value :  8.50022e-06
 Reference value :  8.50059e-06
 Reference value :  8.50134e-06
 Reference value :  8.50182e-06
 Reference value :  8.50281e-06
 Reference value :  8.50333e-06
 Reference value :  8.50435e-06
 Reference value :  8.50488e-06
 Reference value :  8.50547e-06
 Reference value :  8.50734e-06
 Reference value :  8.51638e-06
 Reference value :  8.52145e-06
 Reference value :  8.52611e-06
 Reference value :  8.52932e-06
 Reference value :  8.53136e-06
 Reference value :  8.53317e-06
 Reference value :  8.53466e-06
 Reference value :  8.53616e-06
 Reference value :  8.53824e-06
 Reference value :  8.53942e-06
 Reference value :  8.54346e-06
 Reference value :  8.54636e-06
 Reference value :  8.55329e-06
 Reference value :  8.56388e-06
 Reference value :  8.58552e-06
 Reference value :  8.64207e-06
 Reference value :  8.67508e-06
 Reference value :  8.71769e-06
 Reference value :  8.75011e-06
 Reference value :  8.75017e-06
 Reference value :  8.75021e-06
 Reference value :  8.75026e-06
 Reference value :  8.75045e-06
 Reference value :  8.75082e-06
 Reference value :  8.75129e-06
 Reference value :  8.75215e-06
 Reference value :  8.75277e-06
 Reference value :  8.75331e-06
 Reference value :  8.75390e-06
 Reference value :  8.75451e-06
 Reference value :  8.75602e-06
 Reference value :  8.75709e-06
 Reference value :  8.76098e-06
 Reference value :  8.76476e-06
 Reference value :  8.78529e-06
 Reference value :  8.86302e-06
 Reference value :  8.91843e-06
 Reference value :  8.96897e-06
 Reference value :  8.99555e-06
 Reference value :  9.00000e-06
No. of Data Rows : 1330
ngspice-44 done
