
Note: Compatibility modes selected: hs a


Circuit: ** sch_path: /home/audrey/cace/sar-adc-using-sky130-pdk/runs/run_2025-09-09_12-20-52/parameters/power/run_2/power_consumption.sch

option SCALE: Scale is set to 1e-06 for instance and model parameters
option SCALE: Scale is set to 1e-06 for instance and model parameters
option SCALE: Scale is set to 1e-06 for instance and model parameters
option SCALE: Scale is set to 1e-06 for instance and model parameters
Doing analysis at TEMP = 27.000000 and TNOM = 27.000000

Using KLU as Direct Linear Solver
 Reference value :  0.00000e+00
 Reference value :  2.00000e-12
 Reference value :  1.60000e-11
 Reference value :  1.00000e-10
 Reference value :  1.44800e-10
 Reference value :  4.37234e-10
 Reference value :  1.04538e-09
 Reference value :  1.79884e-09
 Reference value :  2.23933e-09
 Reference value :  3.03597e-09
 Reference value :  3.99562e-09
 Reference value :  5.10248e-09
 Reference value :  6.49573e-09
 Reference value :  7.30465e-09
 Reference value :  8.28725e-09
 Reference value :  1.03297e-08
 Reference value :  1.22183e-08
 Reference value :  1.37393e-08
 Reference value :  1.78786e-08
 Reference value :  2.15931e-08
 Reference value :  2.39989e-08
 Reference value :  2.61024e-08
 Reference value :  3.35596e-08
 Reference value :  4.66175e-08
 Reference value :  9.71750e-08
 Reference value :  2.50110e-07
 Reference value :  2.50170e-07
 Reference value :  2.50222e-07
 Reference value :  2.50308e-07
 Reference value :  2.50519e-07
 Reference value :  2.50924e-07
 Reference value :  2.51657e-07
 Reference value :  2.52105e-07
 Reference value :  2.52709e-07
 Reference value :  2.53487e-07
 Reference value :  2.54055e-07
 Reference value :  2.54711e-07
 Reference value :  2.55374e-07
 Reference value :  2.56050e-07
 Reference value :  2.56969e-07
 Reference value :  2.58174e-07
 Reference value :  2.59512e-07
 Reference value :  2.65428e-07
 Reference value :  2.83736e-07
 Reference value :  3.03836e-07
 Reference value :  4.04966e-07
 Reference value :  5.00010e-07
 Reference value :  5.00070e-07
 Reference value :  5.00124e-07
 Reference value :  5.00220e-07
 Reference value :  5.00500e-07
 Reference value :  5.01283e-07
 Reference value :  5.02188e-07
 Reference value :  5.03256e-07
 Reference value :  5.03857e-07
 Reference value :  5.04514e-07
 Reference value :  5.05216e-07
 Reference value :  5.07348e-07
 Reference value :  5.10262e-07
 Reference value :  5.13076e-07
 Reference value :  5.14748e-07
 Reference value :  5.16400e-07
 Reference value :  5.18134e-07
 Reference value :  5.23392e-07
 Reference value :  5.34402e-07
 Reference value :  5.64271e-07
 Reference value :  6.80971e-07
 Reference value :  7.50110e-07
 Reference value :  7.50170e-07
 Reference value :  7.50208e-07
 Reference value :  7.50224e-07
 Reference value :  7.50318e-07
 Reference value :  7.50684e-07
 Reference value :  7.51387e-07
 Reference value :  7.51856e-07
 Reference value :  7.53029e-07
 Reference value :  7.53778e-07
 Reference value :  7.54423e-07
 Reference value :  7.55804e-07
 Reference value :  7.57616e-07
 Reference value :  7.61488e-07
 Reference value :  7.73278e-07
 Reference value :  8.08860e-07
 Reference value :  9.24128e-07
 Reference value :  1.00001e-06
 Reference value :  1.00003e-06
 Reference value :  1.00010e-06
 Reference value :  1.00011e-06
 Reference value :  1.00016e-06
 Reference value :  1.00022e-06
 Reference value :  1.00050e-06
 Reference value :  1.00128e-06
 Reference value :  1.00219e-06
 Reference value :  1.00268e-06
 Reference value :  1.00329e-06
 Reference value :  1.00391e-06
 Reference value :  1.00441e-06
 Reference value :  1.00499e-06
 Reference value :  1.00557e-06
 Reference value :  1.00609e-06
 Reference value :  1.00671e-06
 Reference value :  1.00843e-06
 Reference value :  1.00995e-06
 Reference value :  1.01142e-06
 Reference value :  1.01278e-06
 Reference value :  1.01388e-06
 Reference value :  1.01603e-06
 Reference value :  1.01707e-06
 Reference value :  1.01937e-06
 Reference value :  1.02607e-06
 Reference value :  1.05824e-06
 Reference value :  1.21969e-06
 Reference value :  1.25011e-06
 Reference value :  1.25017e-06
 Reference value :  1.25021e-06
 Reference value :  1.25022e-06
 Reference value :  1.25032e-06
 Reference value :  1.25068e-06
 Reference value :  1.25095e-06
 Reference value :  1.25138e-06
 Reference value :  1.25185e-06
 Reference value :  1.25236e-06
 Reference value :  1.25303e-06
 Reference value :  1.25379e-06
 Reference value :  1.25440e-06
 Reference value :  1.25506e-06
 Reference value :  1.25574e-06
 Reference value :  1.25670e-06
 Reference value :  1.25766e-06
 Reference value :  1.25926e-06
 Reference value :  1.26576e-06
 Reference value :  1.27308e-06
 Reference value :  1.28536e-06
 Reference value :  1.30791e-06
 Reference value :  1.34631e-06
 Reference value :  1.42047e-06
 Reference value :  1.50001e-06
 Reference value :  1.50007e-06
 Reference value :  1.50011e-06
 Reference value :  1.50016e-06
 Reference value :  1.50034e-06
 Reference value :  1.50128e-06
 Reference value :  1.50219e-06
 Reference value :  1.50323e-06
 Reference value :  1.50443e-06
 Reference value :  1.50617e-06
 Reference value :  1.50819e-06
 Reference value :  1.51036e-06
 Reference value :  1.51289e-06
 Reference value :  1.52043e-06
 Reference value :  1.54525e-06
 Reference value :  1.57834e-06
 Reference value :  1.75011e-06
 Reference value :  1.75017e-06
 Reference value :  1.75022e-06
 Reference value :  1.75044e-06
 Reference value :  1.75094e-06
 Reference value :  1.75138e-06
 Reference value :  1.75236e-06
 Reference value :  1.75377e-06
 Reference value :  1.75507e-06
 Reference value :  1.75578e-06
 Reference value :  1.75673e-06
 Reference value :  1.75928e-06
 Reference value :  1.76567e-06
 Reference value :  1.78489e-06
 Reference value :  1.91552e-06
 Reference value :  2.00003e-06
 Reference value :  2.00011e-06
 Reference value :  2.00016e-06
 Reference value :  2.00050e-06
 Reference value :  2.00128e-06
 Reference value :  2.00219e-06
 Reference value :  2.00329e-06
 Reference value :  2.00441e-06
 Reference value :  2.00557e-06
 Reference value :  2.00609e-06
 Reference value :  2.00757e-06
 Reference value :  2.00999e-06
 Reference value :  2.01143e-06
 Reference value :  2.01280e-06
 Reference value :  2.01389e-06
 Reference value :  2.01603e-06
 Reference value :  2.01707e-06
 Reference value :  2.01937e-06
 Reference value :  2.02607e-06
 Reference value :  2.08814e-06
 Reference value :  2.22403e-06
 Reference value :  2.25011e-06
 Reference value :  2.25020e-06
 Reference value :  2.25032e-06
 Reference value :  2.25094e-06
 Reference value :  2.25138e-06
 Reference value :  2.25236e-06
 Reference value :  2.25378e-06
 Reference value :  2.25506e-06
 Reference value :  2.25669e-06
 Reference value :  2.26566e-06
 Reference value :  2.30684e-06
 Reference value :  2.50000e-06
 Reference value :  2.50007e-06
 Reference value :  2.50012e-06
 Reference value :  2.50034e-06
 Reference value :  2.50128e-06
 Reference value :  2.50176e-06
 Reference value :  2.50219e-06
 Reference value :  2.50323e-06
 Reference value :  2.50443e-06
 Reference value :  2.50617e-06
 Reference value :  2.50819e-06
 Reference value :  2.50932e-06
 Reference value :  2.51158e-06
 Reference value :  2.52043e-06
 Reference value :  2.57827e-06
 Reference value :  2.75011e-06
 Reference value :  2.75013e-06
 Reference value :  2.75017e-06
 Reference value :  2.75021e-06
 Reference value :  2.75026e-06
 Reference value :  2.75044e-06
 Reference value :  2.75094e-06
 Reference value :  2.75138e-06
 Reference value :  2.75235e-06
 Reference value :  2.75302e-06
 Reference value :  2.75440e-06
 Reference value :  2.75577e-06
 Reference value :  2.75759e-06
 Reference value :  2.76144e-06
 Reference value :  2.78453e-06
 Reference value :  2.91078e-06
 Reference value :  3.00001e-06
 Reference value :  3.00007e-06
 Reference value :  3.00011e-06
 Reference value :  3.00016e-06
 Reference value :  3.00034e-06
 Reference value :  3.00083e-06
 Reference value :  3.00128e-06
 Reference value :  3.00219e-06
 Reference value :  3.00268e-06
 Reference value :  3.00329e-06
 Reference value :  3.00391e-06
 Reference value :  3.00440e-06
 Reference value :  3.00557e-06
 Reference value :  3.00609e-06
 Reference value :  3.00757e-06
 Reference value :  3.00844e-06
 Reference value :  3.00999e-06
 Reference value :  3.01143e-06
 Reference value :  3.01280e-06
 Reference value :  3.01388e-06
 Reference value :  3.01603e-06
 Reference value :  3.01707e-06
 Reference value :  3.01936e-06
 Reference value :  3.02272e-06
 Reference value :  3.03152e-06
 Reference value :  3.03765e-06
 Reference value :  3.04540e-06
 Reference value :  3.05078e-06
 Reference value :  3.05667e-06
 Reference value :  3.06992e-06
 Reference value :  3.09538e-06
 Reference value :  3.11332e-06
 Reference value :  3.16663e-06
 Reference value :  3.23109e-06
 Reference value :  3.25011e-06
 Reference value :  3.25017e-06
 Reference value :  3.25021e-06
 Reference value :  3.25026e-06
 Reference value :  3.25045e-06
 Reference value :  3.25095e-06
 Reference value :  3.25138e-06
 Reference value :  3.25236e-06
 Reference value :  3.25373e-06
 Reference value :  3.25440e-06
 Reference value :  3.25509e-06
 Reference value :  3.25675e-06
 Reference value :  3.26184e-06
 Reference value :  3.27310e-06
 Reference value :  3.30582e-06
 Reference value :  3.37457e-06
 Reference value :  3.39845e-06
 Reference value :  3.44642e-06
 Reference value :  3.49539e-06
 Reference value :  3.50001e-06
 Reference value :  3.50003e-06
 Reference value :  3.50010e-06
 Reference value :  3.50012e-06
 Reference value :  3.50022e-06
 Reference value :  3.50050e-06
 Reference value :  3.50083e-06
 Reference value :  3.50128e-06
 Reference value :  3.50176e-06
 Reference value :  3.50219e-06
 Reference value :  3.50268e-06
 Reference value :  3.50323e-06
 Reference value :  3.50442e-06
 Reference value :  3.50616e-06
 Reference value :  3.50820e-06
 Reference value :  3.50931e-06
 Reference value :  3.51037e-06
 Reference value :  3.51158e-06
 Reference value :  3.51288e-06
 Reference value :  3.52024e-06
 Reference value :  3.57642e-06
 Reference value :  3.75010e-06
 Reference value :  3.75011e-06
 Reference value :  3.75017e-06
 Reference value :  3.75022e-06
 Reference value :  3.75032e-06
 Reference value :  3.75068e-06
 Reference value :  3.75138e-06
 Reference value :  3.75235e-06
 Reference value :  3.75377e-06
 Reference value :  3.75440e-06
 Reference value :  3.75577e-06
 Reference value :  3.75758e-06
 Reference value :  3.76554e-06
 Reference value :  3.80585e-06
 Reference value :  3.90873e-06
 Reference value :  4.00001e-06
 Reference value :  4.00007e-06
 Reference value :  4.00011e-06
 Reference value :  4.00022e-06
 Reference value :  4.00050e-06
 Reference value :  4.00128e-06
 Reference value :  4.00219e-06
 Reference value :  4.00329e-06
 Reference value :  4.00440e-06
 Reference value :  4.00557e-06
 Reference value :  4.00609e-06
 Reference value :  4.00757e-06
 Reference value :  4.00999e-06
 Reference value :  4.01280e-06
 Reference value :  4.01388e-06
 Reference value :  4.01602e-06
 Reference value :  4.01707e-06
 Reference value :  4.01936e-06
 Reference value :  4.02271e-06
 Reference value :  4.03152e-06
 Reference value :  4.03735e-06
 Reference value :  4.04150e-06
 Reference value :  4.05668e-06
 Reference value :  4.06832e-06
 Reference value :  4.10891e-06
 Reference value :  4.17379e-06
 Reference value :  4.25011e-06
 Reference value :  4.25020e-06
 Reference value :  4.25022e-06
 Reference value :  4.25032e-06
 Reference value :  4.25069e-06
 Reference value :  4.25138e-06
 Reference value :  4.25185e-06
 Reference value :  4.25236e-06
 Reference value :  4.25373e-06
 Reference value :  4.25509e-06
 Reference value :  4.25675e-06
 Reference value :  4.25940e-06
 Reference value :  4.26605e-06
 Reference value :  4.28493e-06
 Reference value :  4.34026e-06
 Reference value :  4.50001e-06
 Reference value :  4.50010e-06
 Reference value :  4.50012e-06
 Reference value :  4.50022e-06
 Reference value :  4.50050e-06
 Reference value :  4.50129e-06
 Reference value :  4.50218e-06
 Reference value :  4.50332e-06
 Reference value :  4.50395e-06
 Reference value :  4.50553e-06
 Reference value :  4.50734e-06
 Reference value :  4.50817e-06
 Reference value :  4.50903e-06
 Reference value :  4.51119e-06
 Reference value :  4.51957e-06
 Reference value :  4.54756e-06
 Reference value :  4.65954e-06
 Reference value :  4.75013e-06
 Reference value :  4.75020e-06
 Reference value :  4.75022e-06
 Reference value :  4.75032e-06
 Reference value :  4.75068e-06
 Reference value :  4.75138e-06
 Reference value :  4.75235e-06
 Reference value :  4.75376e-06
 Reference value :  4.75439e-06
 Reference value :  4.75576e-06
 Reference value :  4.75757e-06
 Reference value :  4.75933e-06
 Reference value :  4.76214e-06
 Reference value :  4.77523e-06
 Reference value :  4.80783e-06
 Reference value :  5.00000e-06
 Reference value :  5.00003e-06
 Reference value :  5.00011e-06
 Reference value :  5.00016e-06
 Reference value :  5.00034e-06
 Reference value :  5.00083e-06
 Reference value :  5.00128e-06
 Reference value :  5.00219e-06
 Reference value :  5.00329e-06
 Reference value :  5.00441e-06
 Reference value :  5.00556e-06
 Reference value :  5.00609e-06
 Reference value :  5.00843e-06
 Reference value :  5.01071e-06
 Reference value :  5.01285e-06
 Reference value :  5.01369e-06
 Reference value :  5.01556e-06
 Reference value :  5.01757e-06
 Reference value :  5.01995e-06
 Reference value :  5.02372e-06
 Reference value :  5.02959e-06
 Reference value :  5.03186e-06
 Reference value :  5.03670e-06
 Reference value :  5.04586e-06
 Reference value :  5.05730e-06
 Reference value :  5.08624e-06
 Reference value :  5.10201e-06
 Reference value :  5.12219e-06
 Reference value :  5.14174e-06
 Reference value :  5.15786e-06
 Reference value :  5.19056e-06
 Reference value :  5.25010e-06
 Reference value :  5.25013e-06
 Reference value :  5.25020e-06
 Reference value :  5.25026e-06
 Reference value :  5.25044e-06
 Reference value :  5.25094e-06
 Reference value :  5.25138e-06
 Reference value :  5.25235e-06
 Reference value :  5.25302e-06
 Reference value :  5.25374e-06
 Reference value :  5.25510e-06
 Reference value :  5.25677e-06
 Reference value :  5.25945e-06
 Reference value :  5.27308e-06
 Reference value :  5.33971e-06
 Reference value :  5.50001e-06
 Reference value :  5.50007e-06
 Reference value :  5.50011e-06
 Reference value :  5.50016e-06
 Reference value :  5.50034e-06
 Reference value :  5.50083e-06
 Reference value :  5.50129e-06
 Reference value :  5.50218e-06
 Reference value :  5.50332e-06
 Reference value :  5.50395e-06
 Reference value :  5.50473e-06
 Reference value :  5.50657e-06
 Reference value :  5.50734e-06
 Reference value :  5.50903e-06
 Reference value :  5.51119e-06
 Reference value :  5.51956e-06
 Reference value :  5.58502e-06
 Reference value :  5.75011e-06
 Reference value :  5.75017e-06
 Reference value :  5.75021e-06
 Reference value :  5.75026e-06
 Reference value :  5.75044e-06
 Reference value :  5.75094e-06
 Reference value :  5.75185e-06
 Reference value :  5.75302e-06
 Reference value :  5.75376e-06
 Reference value :  5.75439e-06
 Reference value :  5.75576e-06
 Reference value :  5.75757e-06
 Reference value :  5.75842e-06
 Reference value :  5.76074e-06
 Reference value :  5.76830e-06
 Reference value :  5.80742e-06
 Reference value :  6.00000e-06
 Reference value :  6.00007e-06
 Reference value :  6.00012e-06
 Reference value :  6.00022e-06
 Reference value :  6.00050e-06
 Reference value :  6.00128e-06
 Reference value :  6.00219e-06
 Reference value :  6.00329e-06
 Reference value :  6.00441e-06
 Reference value :  6.00556e-06
 Reference value :  6.00670e-06
 Reference value :  6.00843e-06
 Reference value :  6.01072e-06
 Reference value :  6.01175e-06
 Reference value :  6.01369e-06
 Reference value :  6.01555e-06
 Reference value :  6.01652e-06
 Reference value :  6.01869e-06
 Reference value :  6.02185e-06
 Reference value :  6.02367e-06
 Reference value :  6.02511e-06
 Reference value :  6.02839e-06
 Reference value :  6.03386e-06
 Reference value :  6.04747e-06
 Reference value :  6.09726e-06
 Reference value :  6.24103e-06
 Reference value :  6.25011e-06
 Reference value :  6.25017e-06
 Reference value :  6.25022e-06
 Reference value :  6.25032e-06
 Reference value :  6.25094e-06
 Reference value :  6.25138e-06
 Reference value :  6.25235e-06
 Reference value :  6.25365e-06
 Reference value :  6.25497e-06
 Reference value :  6.25760e-06
 Reference value :  6.26141e-06
 Reference value :  6.28279e-06
 Reference value :  6.39265e-06
 Reference value :  6.47715e-06
 Reference value :  6.50001e-06
 Reference value :  6.50010e-06
 Reference value :  6.50016e-06
 Reference value :  6.50034e-06
 Reference value :  6.50083e-06
 Reference value :  6.50129e-06
 Reference value :  6.50218e-06
 Reference value :  6.50333e-06
 Reference value :  6.50476e-06
 Reference value :  6.50557e-06
 Reference value :  6.50738e-06
 Reference value :  6.50904e-06
 Reference value :  6.51120e-06
 Reference value :  6.51472e-06
 Reference value :  6.54599e-06
 Reference value :  6.75010e-06
 Reference value :  6.75013e-06
 Reference value :  6.75020e-06
 Reference value :  6.75026e-06
 Reference value :  6.75068e-06
 Reference value :  6.75138e-06
 Reference value :  6.75235e-06
 Reference value :  6.75376e-06
 Reference value :  6.75439e-06
 Reference value :  6.75575e-06
 Reference value :  6.75757e-06
 Reference value :  6.75932e-06
 Reference value :  6.76485e-06
 Reference value :  6.78742e-06
 Reference value :  6.84834e-06
 Reference value :  7.00001e-06
 Reference value :  7.00007e-06
 Reference value :  7.00012e-06
 Reference value :  7.00022e-06
 Reference value :  7.00050e-06
 Reference value :  7.00128e-06
 Reference value :  7.00219e-06
 Reference value :  7.00330e-06
 Reference value :  7.00443e-06
 Reference value :  7.00500e-06
 Reference value :  7.00557e-06
 Reference value :  7.00609e-06
 Reference value :  7.00754e-06
 Reference value :  7.00972e-06
 Reference value :  7.01070e-06
 Reference value :  7.01284e-06
 Reference value :  7.01367e-06
 Reference value :  7.01552e-06
 Reference value :  7.01755e-06
 Reference value :  7.01878e-06
 Reference value :  7.01990e-06
 Reference value :  7.02158e-06
 Reference value :  7.02348e-06
 Reference value :  7.02568e-06
 Reference value :  7.03067e-06
 Reference value :  7.04194e-06
 Reference value :  7.07236e-06
 Reference value :  7.11150e-06
 Reference value :  7.21709e-06
 Reference value :  7.25013e-06
 Reference value :  7.25020e-06
 Reference value :  7.25026e-06
 Reference value :  7.25068e-06
 Reference value :  7.25138e-06
 Reference value :  7.25235e-06
 Reference value :  7.25378e-06
 Reference value :  7.25438e-06
 Reference value :  7.25569e-06
 Reference value :  7.25758e-06
 Reference value :  7.26139e-06
 Reference value :  7.28395e-06
 Reference value :  7.40727e-06
 Reference value :  7.50003e-06
 Reference value :  7.50011e-06
 Reference value :  7.50016e-06
 Reference value :  7.50050e-06
 Reference value :  7.50128e-06
 Reference value :  7.50219e-06
 Reference value :  7.50323e-06
 Reference value :  7.50442e-06
 Reference value :  7.50616e-06
 Reference value :  7.50818e-06
 Reference value :  7.51036e-06
 Reference value :  7.51289e-06
 Reference value :  7.54490e-06
 Reference value :  7.75010e-06
 Reference value :  7.75017e-06
 Reference value :  7.75022e-06
 Reference value :  7.75044e-06
 Reference value :  7.75138e-06
 Reference value :  7.75235e-06
 Reference value :  7.75439e-06
 Reference value :  7.75576e-06
 Reference value :  7.75757e-06
 Reference value :  7.76546e-06
 Reference value :  7.80488e-06
 Reference value :  8.00000e-06
 Reference value :  8.00007e-06
 Reference value :  8.00011e-06
 Reference value :  8.00016e-06
 Reference value :  8.00034e-06
 Reference value :  8.00128e-06
 Reference value :  8.00219e-06
 Reference value :  8.00329e-06
 Reference value :  8.00440e-06
 Reference value :  8.00556e-06
 Reference value :  8.00609e-06
 Reference value :  8.00672e-06
 Reference value :  8.00758e-06
 Reference value :  8.00929e-06
 Reference value :  8.01027e-06
 Reference value :  8.01356e-06
 Reference value :  8.02670e-06
 Reference value :  8.07927e-06
 Reference value :  8.25010e-06
 Reference value :  8.25013e-06
 Reference value :  8.25020e-06
 Reference value :  8.25026e-06
 Reference value :  8.25045e-06
 Reference value :  8.25139e-06
 Reference value :  8.25237e-06
 Reference value :  8.25387e-06
 Reference value :  8.25565e-06
 Reference value :  8.25925e-06
 Reference value :  8.27125e-06
 Reference value :  8.32577e-06
 Reference value :  8.50000e-06
No. of Data Rows : 1238
ngspice-44 done
