
Note: Compatibility modes selected: hs a


Circuit: ** sch_path: /home/madra/cace/sar-adc-using-sky130-pdk/runs/run_2025-09-09_16-20-07/parameters/inl_dnl/run_0/sar_output_dnl.sch

option SCALE: Scale is set to 1e-06 for instance and model parameters
option SCALE: Scale is set to 1e-06 for instance and model parameters
option SCALE: Scale is set to 1e-06 for instance and model parameters
option SCALE: Scale is set to 1e-06 for instance and model parameters
Doing analysis at TEMP = 27.000000 and TNOM = 27.000000

Using KLU as Direct Linear Solver
Operating point simulation skipped by 'uic',
  now using transient initial conditions.
 Reference value :  1.00000e-12
 Reference value :  1.02772e-12
 Reference value :  1.08316e-12
 Reference value :  1.19404e-12
 Reference value :  1.33846e-12
 Reference value :  1.62729e-12
 Reference value :  2.20497e-12
 Reference value :  3.05013e-12
 Reference value :  3.95489e-12
 Reference value :  5.17166e-12
 Reference value :  6.90189e-12
 Reference value :  1.02274e-11
 Reference value :  1.39353e-11
 Reference value :  2.08254e-11
 Reference value :  2.76457e-11
 Reference value :  3.67568e-11
 Reference value :  4.78715e-11
 Reference value :  6.49999e-11
 Reference value :  8.45784e-11
 Reference value :  1.00000e-10
 Reference value :  1.01293e-10
 Reference value :  1.03878e-10
 Reference value :  1.09048e-10
 Reference value :  1.19389e-10
 Reference value :  1.40072e-10
 Reference value :  1.81436e-10
 Reference value :  2.64164e-10
 Reference value :  4.15803e-10
 Reference value :  5.84378e-10
 Reference value :  8.55539e-10
 Reference value :  1.23026e-09
 Reference value :  1.65876e-09
 Reference value :  2.34080e-09
 Reference value :  3.03507e-09
 Reference value :  4.08662e-09
 Reference value :  4.90877e-09
 Reference value :  5.82143e-09
 Reference value :  6.96799e-09
 Reference value :  8.01073e-09
 Reference value :  9.68228e-09
 Reference value :  1.21274e-08
 Reference value :  1.43728e-08
 Reference value :  1.69181e-08
 Reference value :  1.87765e-08
 Reference value :  2.05888e-08
 Reference value :  2.26305e-08
 Reference value :  2.47695e-08
 Reference value :  2.72630e-08
 Reference value :  3.15223e-08
 Reference value :  3.58222e-08
 Reference value :  4.02368e-08
 Reference value :  4.49995e-08
 Reference value :  4.95395e-08
 Reference value :  5.29774e-08
 Reference value :  5.66613e-08
 Reference value :  6.15516e-08
 Reference value :  6.72737e-08
 Reference value :  7.54790e-08
 Reference value :  8.34097e-08
 Reference value :  9.11781e-08
 Reference value :  1.06715e-07
 Reference value :  1.28648e-07
 Reference value :  1.67952e-07
 Reference value :  2.46560e-07
 Reference value :  2.50100e-07
 Reference value :  2.50110e-07
 Reference value :  2.50130e-07
 Reference value :  2.50170e-07
 Reference value :  2.50200e-07
 Reference value :  2.50201e-07
 Reference value :  2.50202e-07
 Reference value :  2.50204e-07
 Reference value :  2.50208e-07
 Reference value :  2.50216e-07
 Reference value :  2.50233e-07
 Reference value :  2.50267e-07
 Reference value :  2.50334e-07
 Reference value :  2.50417e-07
 Reference value :  2.50583e-07
 Reference value :  2.50745e-07
 Reference value :  2.51068e-07
 Reference value :  2.51438e-07
 Reference value :  2.51996e-07
 Reference value :  2.52603e-07
 Reference value :  2.53300e-07
 Reference value :  2.54249e-07
 Reference value :  2.55116e-07
 Reference value :  2.56069e-07
 Reference value :  2.56936e-07
 Reference value :  2.57924e-07
 Reference value :  2.58891e-07
 Reference value :  2.60452e-07
 Reference value :  2.62797e-07
 Reference value :  2.65088e-07
 Reference value :  2.69037e-07
 Reference value :  2.74172e-07
 Reference value :  2.84443e-07
 Reference value :  3.04349e-07
 Reference value :  3.37959e-07
 Reference value :  4.05181e-07
 Reference value :  5.00000e-07
 Reference value :  5.00010e-07
 Reference value :  5.00030e-07
 Reference value :  5.00070e-07
 Reference value :  5.00100e-07
 Reference value :  5.00104e-07
 Reference value :  5.00113e-07
 Reference value :  5.00130e-07
 Reference value :  5.00164e-07
 Reference value :  5.00231e-07
 Reference value :  5.00367e-07
 Reference value :  5.00555e-07
 Reference value :  5.00931e-07
 Reference value :  5.01442e-07
 Reference value :  5.01989e-07
 Reference value :  5.02532e-07
 Reference value :  5.03219e-07
 Reference value :  5.03899e-07
 Reference value :  5.04737e-07
 Reference value :  5.05601e-07
 Reference value :  5.06506e-07
 Reference value :  5.07755e-07
 Reference value :  5.09085e-07
 Reference value :  5.11252e-07
 Reference value :  5.13775e-07
 Reference value :  5.15662e-07
 Reference value :  5.17787e-07
 Reference value :  5.20178e-07
 Reference value :  5.22603e-07
 Reference value :  5.25378e-07
 Reference value :  5.30247e-07
 Reference value :  5.36645e-07
 Reference value :  5.46141e-07
 Reference value :  5.65133e-07
 Reference value :  5.92153e-07
 Reference value :  6.46192e-07
 Reference value :  7.44661e-07
 Reference value :  7.50100e-07
 Reference value :  7.50110e-07
 Reference value :  7.50130e-07
 Reference value :  7.50170e-07
 Reference value :  7.50200e-07
 Reference value :  7.50201e-07
 Reference value :  7.50202e-07
 Reference value :  7.50205e-07
 Reference value :  7.50211e-07
 Reference value :  7.50224e-07
 Reference value :  7.50248e-07
 Reference value :  7.50296e-07
 Reference value :  7.50393e-07
 Reference value :  7.50588e-07
 Reference value :  7.50969e-07
 Reference value :  7.51487e-07
 Reference value :  7.52156e-07
 Reference value :  7.52798e-07
 Reference value :  7.53554e-07
 Reference value :  7.54614e-07
 Reference value :  7.55359e-07
 Reference value :  7.56201e-07
 Reference value :  7.56968e-07
 Reference value :  7.57806e-07
 Reference value :  7.58869e-07
 Reference value :  7.60018e-07
 Reference value :  7.61214e-07
 Reference value :  7.62875e-07
 Reference value :  7.64762e-07
 Reference value :  7.67221e-07
 Reference value :  7.70577e-07
 Reference value :  7.75271e-07
 Reference value :  7.84660e-07
 Reference value :  8.01201e-07
 Reference value :  8.34283e-07
 Reference value :  9.00446e-07
 Reference value :  1.00000e-06
 Reference value :  1.00001e-06
 Reference value :  1.00003e-06
 Reference value :  1.00007e-06
 Reference value :  1.00010e-06
 Reference value :  1.00010e-06
 Reference value :  1.00011e-06
 Reference value :  1.00013e-06
 Reference value :  1.00016e-06
 Reference value :  1.00023e-06
 Reference value :  1.00037e-06
 Reference value :  1.00055e-06
 Reference value :  1.00093e-06
 Reference value :  1.00144e-06
 Reference value :  1.00198e-06
 Reference value :  1.00256e-06
 Reference value :  1.00320e-06
 Reference value :  1.00388e-06
 Reference value :  1.00466e-06
 Reference value :  1.00549e-06
 Reference value :  1.00634e-06
 Reference value :  1.00715e-06
 Reference value :  1.00799e-06
 Reference value :  1.00891e-06
 Reference value :  1.00981e-06
 Reference value :  1.01106e-06
 Reference value :  1.01269e-06
 Reference value :  1.01516e-06
 Reference value :  1.01677e-06
 Reference value :  1.01862e-06
 Reference value :  1.02039e-06
 Reference value :  1.02208e-06
 Reference value :  1.02345e-06
 Reference value :  1.02489e-06
 Reference value :  1.02639e-06
 Reference value :  1.02818e-06
 Reference value :  1.03003e-06
 Reference value :  1.03272e-06
 Reference value :  1.03617e-06
 Reference value :  1.04291e-06
 Reference value :  1.05356e-06
 Reference value :  1.07311e-06
 Reference value :  1.10428e-06
 Reference value :  1.16517e-06
 Reference value :  1.23545e-06
 Reference value :  1.25010e-06
 Reference value :  1.25011e-06
 Reference value :  1.25013e-06
 Reference value :  1.25017e-06
 Reference value :  1.25020e-06
 Reference value :  1.25020e-06
 Reference value :  1.25020e-06
 Reference value :  1.25021e-06
 Reference value :  1.25021e-06
 Reference value :  1.25022e-06
 Reference value :  1.25025e-06
 Reference value :  1.25030e-06
 Reference value :  1.25039e-06
 Reference value :  1.25059e-06
 Reference value :  1.25093e-06
 Reference value :  1.25147e-06
 Reference value :  1.25211e-06
 Reference value :  1.25276e-06
 Reference value :  1.25350e-06
 Reference value :  1.25453e-06
 Reference value :  1.25526e-06
 Reference value :  1.25610e-06
 Reference value :  1.25699e-06
 Reference value :  1.25792e-06
 Reference value :  1.25919e-06
 Reference value :  1.26115e-06
 Reference value :  1.26329e-06
 Reference value :  1.26656e-06
 Reference value :  1.27077e-06
 Reference value :  1.27918e-06
 Reference value :  1.29600e-06
 Reference value :  1.32615e-06
 Reference value :  1.38644e-06
 Reference value :  1.50000e-06
 Reference value :  1.50001e-06
 Reference value :  1.50003e-06
 Reference value :  1.50007e-06
 Reference value :  1.50010e-06
 Reference value :  1.50010e-06
 Reference value :  1.50011e-06
 Reference value :  1.50013e-06
 Reference value :  1.50016e-06
 Reference value :  1.50023e-06
 Reference value :  1.50037e-06
 Reference value :  1.50055e-06
 Reference value :  1.50091e-06
 Reference value :  1.50142e-06
 Reference value :  1.50197e-06
 Reference value :  1.50251e-06
 Reference value :  1.50321e-06
 Reference value :  1.50385e-06
 Reference value :  1.50463e-06
 Reference value :  1.50544e-06
 Reference value :  1.50636e-06
 Reference value :  1.50757e-06
 Reference value :  1.50880e-06
 Reference value :  1.51013e-06
 Reference value :  1.51163e-06
 Reference value :  1.51310e-06
 Reference value :  1.51460e-06
 Reference value :  1.51619e-06
 Reference value :  1.51783e-06
 Reference value :  1.51965e-06
 Reference value :  1.52328e-06
 Reference value :  1.53056e-06
 Reference value :  1.54286e-06
 Reference value :  1.56747e-06
 Reference value :  1.61668e-06
 Reference value :  1.71511e-06
 Reference value :  1.75010e-06
 Reference value :  1.75011e-06
 Reference value :  1.75013e-06
 Reference value :  1.75017e-06
 Reference value :  1.75020e-06
 Reference value :  1.75020e-06
 Reference value :  1.75020e-06
 Reference value :  1.75021e-06
 Reference value :  1.75021e-06
 Reference value :  1.75022e-06
 Reference value :  1.75025e-06
 Reference value :  1.75029e-06
 Reference value :  1.75039e-06
 Reference value :  1.75058e-06
 Reference value :  1.75091e-06
 Reference value :  1.75146e-06
 Reference value :  1.75208e-06
 Reference value :  1.75275e-06
 Reference value :  1.75348e-06
 Reference value :  1.75451e-06
 Reference value :  1.75525e-06
 Reference value :  1.75610e-06
 Reference value :  1.75685e-06
 Reference value :  1.75767e-06
 Reference value :  1.75868e-06
 Reference value :  1.75979e-06
 Reference value :  1.76094e-06
 Reference value :  1.76260e-06
 Reference value :  1.76447e-06
 Reference value :  1.76699e-06
 Reference value :  1.77021e-06
 Reference value :  1.77484e-06
 Reference value :  1.78411e-06
 Reference value :  1.80091e-06
 Reference value :  1.83451e-06
 Reference value :  1.90171e-06
 Reference value :  2.00000e-06
 Reference value :  2.00001e-06
 Reference value :  2.00003e-06
 Reference value :  2.00007e-06
 Reference value :  2.00010e-06
 Reference value :  2.00010e-06
 Reference value :  2.00011e-06
 Reference value :  2.00013e-06
 Reference value :  2.00016e-06
 Reference value :  2.00023e-06
 Reference value :  2.00037e-06
 Reference value :  2.00054e-06
 Reference value :  2.00090e-06
 Reference value :  2.00141e-06
 Reference value :  2.00196e-06
 Reference value :  2.00255e-06
 Reference value :  2.00319e-06
 Reference value :  2.00387e-06
 Reference value :  2.00463e-06
 Reference value :  2.00544e-06
 Reference value :  2.00621e-06
 Reference value :  2.00702e-06
 Reference value :  2.00786e-06
 Reference value :  2.00875e-06
 Reference value :  2.00965e-06
 Reference value :  2.01103e-06
 Reference value :  2.01234e-06
 Reference value :  2.01426e-06
 Reference value :  2.01621e-06
 Reference value :  2.01806e-06
 Reference value :  2.02010e-06
 Reference value :  2.02175e-06
 Reference value :  2.02354e-06
 Reference value :  2.02525e-06
 Reference value :  2.02703e-06
 Reference value :  2.02919e-06
 Reference value :  2.03119e-06
 Reference value :  2.03437e-06
 Reference value :  2.03850e-06
 Reference value :  2.04675e-06
 Reference value :  2.05810e-06
 Reference value :  2.07864e-06
 Reference value :  2.11099e-06
 Reference value :  2.16357e-06
 Reference value :  2.23766e-06
 Reference value :  2.25010e-06
 Reference value :  2.25011e-06
 Reference value :  2.25013e-06
 Reference value :  2.25017e-06
 Reference value :  2.25020e-06
 Reference value :  2.25020e-06
 Reference value :  2.25020e-06
 Reference value :  2.25021e-06
 Reference value :  2.25021e-06
 Reference value :  2.25022e-06
 Reference value :  2.25025e-06
 Reference value :  2.25030e-06
 Reference value :  2.25039e-06
 Reference value :  2.25059e-06
 Reference value :  2.25093e-06
 Reference value :  2.25146e-06
 Reference value :  2.25210e-06
 Reference value :  2.25276e-06
 Reference value :  2.25350e-06
 Reference value :  2.25452e-06
 Reference value :  2.25524e-06
 Reference value :  2.25608e-06
 Reference value :  2.25697e-06
 Reference value :  2.25790e-06
 Reference value :  2.25915e-06
 Reference value :  2.26104e-06
 Reference value :  2.26319e-06
 Reference value :  2.26637e-06
 Reference value :  2.27058e-06
 Reference value :  2.27901e-06
 Reference value :  2.29585e-06
 Reference value :  2.32536e-06
 Reference value :  2.38438e-06
 Reference value :  2.44302e-06
 Reference value :  2.50000e-06
 Reference value :  2.50001e-06
 Reference value :  2.50003e-06
 Reference value :  2.50007e-06
 Reference value :  2.50010e-06
 Reference value :  2.50010e-06
 Reference value :  2.50011e-06
 Reference value :  2.50013e-06
 Reference value :  2.50016e-06
 Reference value :  2.50023e-06
 Reference value :  2.50037e-06
 Reference value :  2.50054e-06
 Reference value :  2.50090e-06
 Reference value :  2.50141e-06
 Reference value :  2.50196e-06
 Reference value :  2.50251e-06
 Reference value :  2.50321e-06
 Reference value :  2.50385e-06
 Reference value :  2.50462e-06
 Reference value :  2.50543e-06
 Reference value :  2.50634e-06
 Reference value :  2.50757e-06
 Reference value :  2.50879e-06
 Reference value :  2.51012e-06
 Reference value :  2.51161e-06
 Reference value :  2.51308e-06
 Reference value :  2.51454e-06
 Reference value :  2.51610e-06
 Reference value :  2.51768e-06
 Reference value :  2.51946e-06
 Reference value :  2.52303e-06
 Reference value :  2.53016e-06
 Reference value :  2.54265e-06
 Reference value :  2.56764e-06
 Reference value :  2.61762e-06
 Reference value :  2.71757e-06
 Reference value :  2.75010e-06
 Reference value :  2.75011e-06
 Reference value :  2.75013e-06
 Reference value :  2.75017e-06
 Reference value :  2.75020e-06
 Reference value :  2.75020e-06
 Reference value :  2.75020e-06
 Reference value :  2.75021e-06
 Reference value :  2.75021e-06
 Reference value :  2.75022e-06
 Reference value :  2.75025e-06
 Reference value :  2.75029e-06
 Reference value :  2.75039e-06
 Reference value :  2.75058e-06
 Reference value :  2.75091e-06
 Reference value :  2.75145e-06
 Reference value :  2.75208e-06
 Reference value :  2.75275e-06
 Reference value :  2.75348e-06
 Reference value :  2.75450e-06
 Reference value :  2.75524e-06
 Reference value :  2.75609e-06
 Reference value :  2.75683e-06
 Reference value :  2.75766e-06
 Reference value :  2.75867e-06
 Reference value :  2.75979e-06
 Reference value :  2.76092e-06
 Reference value :  2.76260e-06
 Reference value :  2.76445e-06
 Reference value :  2.76697e-06
 Reference value :  2.77017e-06
 Reference value :  2.77479e-06
 Reference value :  2.78402e-06
 Reference value :  2.79912e-06
 Reference value :  2.82931e-06
 Reference value :  2.88969e-06
 Reference value :  3.00000e-06
 Reference value :  3.00001e-06
 Reference value :  3.00003e-06
 Reference value :  3.00007e-06
 Reference value :  3.00010e-06
 Reference value :  3.00010e-06
 Reference value :  3.00011e-06
 Reference value :  3.00013e-06
 Reference value :  3.00016e-06
 Reference value :  3.00023e-06
 Reference value :  3.00037e-06
 Reference value :  3.00054e-06
 Reference value :  3.00090e-06
 Reference value :  3.00141e-06
 Reference value :  3.00196e-06
 Reference value :  3.00254e-06
 Reference value :  3.00319e-06
 Reference value :  3.00387e-06
 Reference value :  3.00463e-06
 Reference value :  3.00544e-06
 Reference value :  3.00628e-06
 Reference value :  3.00707e-06
 Reference value :  3.00795e-06
 Reference value :  3.00886e-06
 Reference value :  3.00978e-06
 Reference value :  3.01109e-06
 Reference value :  3.01259e-06
 Reference value :  3.01473e-06
 Reference value :  3.01630e-06
 Reference value :  3.01799e-06
 Reference value :  3.01978e-06
 Reference value :  3.02119e-06
 Reference value :  3.02259e-06
 Reference value :  3.02426e-06
 Reference value :  3.02586e-06
 Reference value :  3.02734e-06
 Reference value :  3.02929e-06
 Reference value :  3.03172e-06
 Reference value :  3.03434e-06
 Reference value :  3.03889e-06
 Reference value :  3.04514e-06
 Reference value :  3.05536e-06
 Reference value :  3.07230e-06
 Reference value :  3.09926e-06
 Reference value :  3.12394e-06
 Reference value :  3.15402e-06
 Reference value :  3.17852e-06
 Reference value :  3.20064e-06
 Reference value :  3.21348e-06
 Reference value :  3.22803e-06
 Reference value :  3.24710e-06
 Reference value :  3.25010e-06
 Reference value :  3.25011e-06
 Reference value :  3.25013e-06
 Reference value :  3.25017e-06
 Reference value :  3.25020e-06
 Reference value :  3.25020e-06
 Reference value :  3.25020e-06
 Reference value :  3.25021e-06
 Reference value :  3.25021e-06
 Reference value :  3.25022e-06
 Reference value :  3.25025e-06
 Reference value :  3.25030e-06
 Reference value :  3.25039e-06
 Reference value :  3.25059e-06
 Reference value :  3.25093e-06
 Reference value :  3.25146e-06
 Reference value :  3.25210e-06
 Reference value :  3.25276e-06
 Reference value :  3.25349e-06
 Reference value :  3.25452e-06
 Reference value :  3.25526e-06
 Reference value :  3.25612e-06
 Reference value :  3.25700e-06
 Reference value :  3.25792e-06
 Reference value :  3.25921e-06
 Reference value :  3.26101e-06
 Reference value :  3.26320e-06
 Reference value :  3.26636e-06
 Reference value :  3.27062e-06
 Reference value :  3.27915e-06
 Reference value :  3.29620e-06
 Reference value :  3.32545e-06
 Reference value :  3.37473e-06
 Reference value :  3.42051e-06
 Reference value :  3.44974e-06
 Reference value :  3.48031e-06
 Reference value :  3.50000e-06
 Reference value :  3.50001e-06
 Reference value :  3.50003e-06
 Reference value :  3.50007e-06
 Reference value :  3.50010e-06
 Reference value :  3.50010e-06
 Reference value :  3.50011e-06
 Reference value :  3.50013e-06
 Reference value :  3.50016e-06
 Reference value :  3.50023e-06
 Reference value :  3.50037e-06
 Reference value :  3.50054e-06
 Reference value :  3.50090e-06
 Reference value :  3.50141e-06
 Reference value :  3.50196e-06
 Reference value :  3.50251e-06
 Reference value :  3.50320e-06
 Reference value :  3.50384e-06
 Reference value :  3.50461e-06
 Reference value :  3.50543e-06
 Reference value :  3.50628e-06
 Reference value :  3.50753e-06
 Reference value :  3.50870e-06
 Reference value :  3.51006e-06
 Reference value :  3.51161e-06
 Reference value :  3.51301e-06
 Reference value :  3.51436e-06
 Reference value :  3.51584e-06
 Reference value :  3.51733e-06
 Reference value :  3.51905e-06
 Reference value :  3.52250e-06
 Reference value :  3.52819e-06
 Reference value :  3.53958e-06
 Reference value :  3.56235e-06
 Reference value :  3.60788e-06
 Reference value :  3.69896e-06
 Reference value :  3.75010e-06
 Reference value :  3.75011e-06
 Reference value :  3.75013e-06
 Reference value :  3.75017e-06
 Reference value :  3.75020e-06
 Reference value :  3.75020e-06
 Reference value :  3.75020e-06
 Reference value :  3.75021e-06
 Reference value :  3.75021e-06
 Reference value :  3.75022e-06
 Reference value :  3.75025e-06
 Reference value :  3.75029e-06
 Reference value :  3.75039e-06
 Reference value :  3.75058e-06
 Reference value :  3.75091e-06
 Reference value :  3.75145e-06
 Reference value :  3.75208e-06
 Reference value :  3.75275e-06
 Reference value :  3.75348e-06
 Reference value :  3.75450e-06
 Reference value :  3.75523e-06
 Reference value :  3.75608e-06
 Reference value :  3.75683e-06
 Reference value :  3.75765e-06
 Reference value :  3.75866e-06
 Reference value :  3.75978e-06
 Reference value :  3.76092e-06
 Reference value :  3.76259e-06
 Reference value :  3.76445e-06
 Reference value :  3.76697e-06
 Reference value :  3.77018e-06
 Reference value :  3.77480e-06
 Reference value :  3.78405e-06
 Reference value :  3.79977e-06
 Reference value :  3.83121e-06
 Reference value :  3.89408e-06
 Reference value :  4.00000e-06
 Reference value :  4.00001e-06
 Reference value :  4.00003e-06
 Reference value :  4.00007e-06
 Reference value :  4.00010e-06
 Reference value :  4.00010e-06
 Reference value :  4.00011e-06
 Reference value :  4.00013e-06
 Reference value :  4.00016e-06
 Reference value :  4.00023e-06
 Reference value :  4.00037e-06
 Reference value :  4.00054e-06
 Reference value :  4.00090e-06
 Reference value :  4.00141e-06
 Reference value :  4.00196e-06
 Reference value :  4.00254e-06
 Reference value :  4.00319e-06
 Reference value :  4.00387e-06
 Reference value :  4.00463e-06
 Reference value :  4.00544e-06
 Reference value :  4.00622e-06
 Reference value :  4.00702e-06
 Reference value :  4.00789e-06
 Reference value :  4.00879e-06
 Reference value :  4.00970e-06
 Reference value :  4.01099e-06
 Reference value :  4.01250e-06
 Reference value :  4.01390e-06
 Reference value :  4.01544e-06
 Reference value :  4.01703e-06
 Reference value :  4.01868e-06
 Reference value :  4.02024e-06
 Reference value :  4.02140e-06
 Reference value :  4.02258e-06
 Reference value :  4.02396e-06
 Reference value :  4.02526e-06
 Reference value :  4.02660e-06
 Reference value :  4.02818e-06
 Reference value :  4.03036e-06
 Reference value :  4.03267e-06
 Reference value :  4.03660e-06
 Reference value :  4.04089e-06
 Reference value :  4.04562e-06
 Reference value :  4.04894e-06
 Reference value :  4.05205e-06
 Reference value :  4.05494e-06
 Reference value :  4.05830e-06
 Reference value :  4.06333e-06
 Reference value :  4.06892e-06
 Reference value :  4.07737e-06
 Reference value :  4.08929e-06
 Reference value :  4.10593e-06
 Reference value :  4.12363e-06
 Reference value :  4.14404e-06
 Reference value :  4.16415e-06
 Reference value :  4.19249e-06
 Reference value :  4.22993e-06
 Reference value :  4.25010e-06
 Reference value :  4.25011e-06
 Reference value :  4.25013e-06
 Reference value :  4.25017e-06
 Reference value :  4.25020e-06
 Reference value :  4.25020e-06
 Reference value :  4.25020e-06
 Reference value :  4.25021e-06
 Reference value :  4.25021e-06
 Reference value :  4.25022e-06
 Reference value :  4.25025e-06
 Reference value :  4.25030e-06
 Reference value :  4.25039e-06
 Reference value :  4.25059e-06
 Reference value :  4.25092e-06
 Reference value :  4.25146e-06
 Reference value :  4.25210e-06
 Reference value :  4.25275e-06
 Reference value :  4.25349e-06
 Reference value :  4.25451e-06
 Reference value :  4.25526e-06
 Reference value :  4.25611e-06
 Reference value :  4.25699e-06
 Reference value :  4.25791e-06
 Reference value :  4.25921e-06
 Reference value :  4.26098e-06
 Reference value :  4.26322e-06
 Reference value :  4.26632e-06
 Reference value :  4.27063e-06
 Reference value :  4.27926e-06
 Reference value :  4.29621e-06
 Reference value :  4.32552e-06
 Reference value :  4.38413e-06
 Reference value :  4.49805e-06
 Reference value :  4.50000e-06
 Reference value :  4.50001e-06
 Reference value :  4.50003e-06
 Reference value :  4.50007e-06
 Reference value :  4.50010e-06
 Reference value :  4.50010e-06
 Reference value :  4.50011e-06
 Reference value :  4.50013e-06
 Reference value :  4.50016e-06
 Reference value :  4.50023e-06
 Reference value :  4.50037e-06
 Reference value :  4.50054e-06
 Reference value :  4.50090e-06
 Reference value :  4.50141e-06
 Reference value :  4.50196e-06
 Reference value :  4.50255e-06
 Reference value :  4.50319e-06
 Reference value :  4.50387e-06
 Reference value :  4.50464e-06
 Reference value :  4.50546e-06
 Reference value :  4.50632e-06
 Reference value :  4.50752e-06
 Reference value :  4.50871e-06
 Reference value :  4.50993e-06
 Reference value :  4.51126e-06
 Reference value :  4.51285e-06
 Reference value :  4.51434e-06
 Reference value :  4.51580e-06
 Reference value :  4.51737e-06
 Reference value :  4.51916e-06
 Reference value :  4.52238e-06
 Reference value :  4.52724e-06
 Reference value :  4.53694e-06
 Reference value :  4.55578e-06
 Reference value :  4.59268e-06
 Reference value :  4.66648e-06
 Reference value :  4.75010e-06
 Reference value :  4.75011e-06
 Reference value :  4.75013e-06
 Reference value :  4.75017e-06
 Reference value :  4.75020e-06
 Reference value :  4.75020e-06
 Reference value :  4.75020e-06
 Reference value :  4.75021e-06
 Reference value :  4.75021e-06
 Reference value :  4.75022e-06
 Reference value :  4.75025e-06
 Reference value :  4.75029e-06
 Reference value :  4.75039e-06
 Reference value :  4.75058e-06
 Reference value :  4.75091e-06
 Reference value :  4.75145e-06
 Reference value :  4.75208e-06
 Reference value :  4.75274e-06
 Reference value :  4.75347e-06
 Reference value :  4.75449e-06
 Reference value :  4.75522e-06
 Reference value :  4.75608e-06
 Reference value :  4.75682e-06
 Reference value :  4.75765e-06
 Reference value :  4.75865e-06
 Reference value :  4.75976e-06
 Reference value :  4.76200e-06
 Reference value :  4.76435e-06
 Reference value :  4.76832e-06
 Reference value :  4.77323e-06
 Reference value :  4.78305e-06
 Reference value :  4.80270e-06
 Reference value :  4.84080e-06
 Reference value :  4.91701e-06
 Reference value :  5.00000e-06
 Reference value :  5.00001e-06
 Reference value :  5.00003e-06
 Reference value :  5.00007e-06
 Reference value :  5.00010e-06
 Reference value :  5.00010e-06
 Reference value :  5.00011e-06
 Reference value :  5.00013e-06
 Reference value :  5.00016e-06
 Reference value :  5.00023e-06
 Reference value :  5.00037e-06
 Reference value :  5.00054e-06
 Reference value :  5.00090e-06
 Reference value :  5.00141e-06
 Reference value :  5.00196e-06
 Reference value :  5.00254e-06
 Reference value :  5.00320e-06
 Reference value :  5.00389e-06
 Reference value :  5.00465e-06
 Reference value :  5.00547e-06
 Reference value :  5.00636e-06
 Reference value :  5.00731e-06
 Reference value :  5.00809e-06
 Reference value :  5.00899e-06
 Reference value :  5.00996e-06
 Reference value :  5.01112e-06
 Reference value :  5.01297e-06
 Reference value :  5.01549e-06
 Reference value :  5.01798e-06
 Reference value :  5.02018e-06
 Reference value :  5.02189e-06
 Reference value :  5.02349e-06
 Reference value :  5.02507e-06
 Reference value :  5.02678e-06
 Reference value :  5.02870e-06
 Reference value :  5.03072e-06
 Reference value :  5.03339e-06
 Reference value :  5.03711e-06
 Reference value :  5.04321e-06
 Reference value :  5.05309e-06
 Reference value :  5.07001e-06
 Reference value :  5.08824e-06
 Reference value :  5.10544e-06
 Reference value :  5.13486e-06
 Reference value :  5.16571e-06
 Reference value :  5.22741e-06
 Reference value :  5.25010e-06
 Reference value :  5.25011e-06
 Reference value :  5.25013e-06
 Reference value :  5.25017e-06
 Reference value :  5.25020e-06
 Reference value :  5.25020e-06
 Reference value :  5.25020e-06
 Reference value :  5.25021e-06
 Reference value :  5.25021e-06
 Reference value :  5.25022e-06
 Reference value :  5.25025e-06
 Reference value :  5.25029e-06
 Reference value :  5.25039e-06
 Reference value :  5.25058e-06
 Reference value :  5.25091e-06
 Reference value :  5.25145e-06
 Reference value :  5.25207e-06
 Reference value :  5.25274e-06
 Reference value :  5.25347e-06
 Reference value :  5.25449e-06
 Reference value :  5.25525e-06
 Reference value :  5.25612e-06
 Reference value :  5.25699e-06
 Reference value :  5.25791e-06
 Reference value :  5.25926e-06
 Reference value :  5.26099e-06
 Reference value :  5.26324e-06
 Reference value :  5.26635e-06
 Reference value :  5.27069e-06
 Reference value :  5.27937e-06
 Reference value :  5.29586e-06
 Reference value :  5.32459e-06
 Reference value :  5.38201e-06
 Reference value :  5.49684e-06
 Reference value :  5.50000e-06
 Reference value :  5.50001e-06
 Reference value :  5.50003e-06
 Reference value :  5.50007e-06
 Reference value :  5.50010e-06
 Reference value :  5.50010e-06
 Reference value :  5.50011e-06
 Reference value :  5.50013e-06
 Reference value :  5.50016e-06
 Reference value :  5.50023e-06
 Reference value :  5.50037e-06
 Reference value :  5.50054e-06
 Reference value :  5.50090e-06
 Reference value :  5.50141e-06
 Reference value :  5.50196e-06
 Reference value :  5.50255e-06
 Reference value :  5.50319e-06
 Reference value :  5.50387e-06
 Reference value :  5.50464e-06
 Reference value :  5.50546e-06
 Reference value :  5.50637e-06
 Reference value :  5.50755e-06
 Reference value :  5.50880e-06
 Reference value :  5.51000e-06
 Reference value :  5.51126e-06
 Reference value :  5.51270e-06
 Reference value :  5.51406e-06
 Reference value :  5.51547e-06
 Reference value :  5.51696e-06
 Reference value :  5.51869e-06
 Reference value :  5.52204e-06
 Reference value :  5.52702e-06
 Reference value :  5.53699e-06
 Reference value :  5.55692e-06
 Reference value :  5.59680e-06
 Reference value :  5.67654e-06
 Reference value :  5.75010e-06
 Reference value :  5.75011e-06
 Reference value :  5.75013e-06
 Reference value :  5.75017e-06
 Reference value :  5.75020e-06
 Reference value :  5.75020e-06
 Reference value :  5.75020e-06
 Reference value :  5.75021e-06
 Reference value :  5.75021e-06
 Reference value :  5.75022e-06
 Reference value :  5.75025e-06
 Reference value :  5.75029e-06
 Reference value :  5.75039e-06
 Reference value :  5.75058e-06
 Reference value :  5.75091e-06
 Reference value :  5.75145e-06
 Reference value :  5.75208e-06
 Reference value :  5.75274e-06
 Reference value :  5.75347e-06
 Reference value :  5.75449e-06
 Reference value :  5.75523e-06
 Reference value :  5.75609e-06
 Reference value :  5.75683e-06
 Reference value :  5.75766e-06
 Reference value :  5.75866e-06
 Reference value :  5.75977e-06
 Reference value :  5.76200e-06
 Reference value :  5.76437e-06
 Reference value :  5.76833e-06
 Reference value :  5.77326e-06
 Reference value :  5.78312e-06
 Reference value :  5.80284e-06
 Reference value :  5.84098e-06
 Reference value :  5.91727e-06
 Reference value :  6.00000e-06
 Reference value :  6.00001e-06
 Reference value :  6.00003e-06
 Reference value :  6.00007e-06
 Reference value :  6.00010e-06
 Reference value :  6.00010e-06
 Reference value :  6.00011e-06
 Reference value :  6.00013e-06
 Reference value :  6.00016e-06
 Reference value :  6.00023e-06
 Reference value :  6.00037e-06
 Reference value :  6.00054e-06
 Reference value :  6.00090e-06
 Reference value :  6.00141e-06
 Reference value :  6.00196e-06
 Reference value :  6.00255e-06
 Reference value :  6.00320e-06
 Reference value :  6.00388e-06
 Reference value :  6.00464e-06
 Reference value :  6.00545e-06
 Reference value :  6.00630e-06
 Reference value :  6.00724e-06
 Reference value :  6.00801e-06
 Reference value :  6.00887e-06
 Reference value :  6.00988e-06
 Reference value :  6.01100e-06
 Reference value :  6.01289e-06
 Reference value :  6.01530e-06
 Reference value :  6.01804e-06
 Reference value :  6.02027e-06
 Reference value :  6.02208e-06
 Reference value :  6.02379e-06
 Reference value :  6.02542e-06
 Reference value :  6.02715e-06
 Reference value :  6.02910e-06
 Reference value :  6.03125e-06
 Reference value :  6.03381e-06
 Reference value :  6.03762e-06
 Reference value :  6.04310e-06
 Reference value :  6.05180e-06
 Reference value :  6.06116e-06
 Reference value :  6.07247e-06
 Reference value :  6.08723e-06
 Reference value :  6.11033e-06
 Reference value :  6.15652e-06
 Reference value :  6.23203e-06
 Reference value :  6.25010e-06
 Reference value :  6.25011e-06
 Reference value :  6.25013e-06
 Reference value :  6.25017e-06
 Reference value :  6.25020e-06
 Reference value :  6.25020e-06
 Reference value :  6.25020e-06
 Reference value :  6.25021e-06
 Reference value :  6.25021e-06
 Reference value :  6.25022e-06
 Reference value :  6.25025e-06
 Reference value :  6.25029e-06
 Reference value :  6.25039e-06
 Reference value :  6.25058e-06
 Reference value :  6.25091e-06
 Reference value :  6.25145e-06
 Reference value :  6.25208e-06
 Reference value :  6.25275e-06
 Reference value :  6.25348e-06
 Reference value :  6.25449e-06
 Reference value :  6.25525e-06
 Reference value :  6.25612e-06
 Reference value :  6.25699e-06
 Reference value :  6.25791e-06
 Reference value :  6.25925e-06
 Reference value :  6.26098e-06
 Reference value :  6.26323e-06
 Reference value :  6.26634e-06
 Reference value :  6.27067e-06
 Reference value :  6.27932e-06
 Reference value :  6.29580e-06
 Reference value :  6.32445e-06
 Reference value :  6.38176e-06
 Reference value :  6.49637e-06
 Reference value :  6.50000e-06
 Reference value :  6.50001e-06
 Reference value :  6.50003e-06
 Reference value :  6.50007e-06
 Reference value :  6.50010e-06
 Reference value :  6.50010e-06
 Reference value :  6.50011e-06
 Reference value :  6.50013e-06
 Reference value :  6.50016e-06
 Reference value :  6.50023e-06
 Reference value :  6.50037e-06
 Reference value :  6.50054e-06
 Reference value :  6.50090e-06
 Reference value :  6.50141e-06
 Reference value :  6.50196e-06
 Reference value :  6.50255e-06
 Reference value :  6.50319e-06
 Reference value :  6.50387e-06
 Reference value :  6.50464e-06
 Reference value :  6.50546e-06
 Reference value :  6.50632e-06
 Reference value :  6.50752e-06
 Reference value :  6.50872e-06
 Reference value :  6.51002e-06
 Reference value :  6.51148e-06
 Reference value :  6.51293e-06
 Reference value :  6.51434e-06
 Reference value :  6.51582e-06
 Reference value :  6.51744e-06
 Reference value :  6.51928e-06
 Reference value :  6.52264e-06
 Reference value :  6.52756e-06
 Reference value :  6.53721e-06
 Reference value :  6.55537e-06
 Reference value :  6.58974e-06
 Reference value :  6.65848e-06
 Reference value :  6.75010e-06
 Reference value :  6.75011e-06
 Reference value :  6.75013e-06
 Reference value :  6.75017e-06
 Reference value :  6.75020e-06
 Reference value :  6.75020e-06
 Reference value :  6.75020e-06
 Reference value :  6.75021e-06
 Reference value :  6.75021e-06
 Reference value :  6.75022e-06
 Reference value :  6.75025e-06
 Reference value :  6.75029e-06
 Reference value :  6.75039e-06
 Reference value :  6.75058e-06
 Reference value :  6.75091e-06
 Reference value :  6.75145e-06
 Reference value :  6.75208e-06
 Reference value :  6.75275e-06
 Reference value :  6.75348e-06
 Reference value :  6.75450e-06
 Reference value :  6.75523e-06
 Reference value :  6.75609e-06
 Reference value :  6.75683e-06
 Reference value :  6.75765e-06
 Reference value :  6.75866e-06
 Reference value :  6.75977e-06
 Reference value :  6.76200e-06
 Reference value :  6.76436e-06
 Reference value :  6.76833e-06
 Reference value :  6.77325e-06
 Reference value :  6.78311e-06
 Reference value :  6.80281e-06
 Reference value :  6.84089e-06
 Reference value :  6.91704e-06
 Reference value :  7.00000e-06
 Reference value :  7.00001e-06
 Reference value :  7.00003e-06
 Reference value :  7.00007e-06
 Reference value :  7.00010e-06
 Reference value :  7.00010e-06
 Reference value :  7.00011e-06
 Reference value :  7.00013e-06
 Reference value :  7.00016e-06
 Reference value :  7.00023e-06
 Reference value :  7.00037e-06
 Reference value :  7.00054e-06
 Reference value :  7.00090e-06
 Reference value :  7.00141e-06
 Reference value :  7.00196e-06
 Reference value :  7.00255e-06
 Reference value :  7.00320e-06
 Reference value :  7.00387e-06
 Reference value :  7.00463e-06
 Reference value :  7.00545e-06
 Reference value :  7.00635e-06
 Reference value :  7.00728e-06
 Reference value :  7.00805e-06
 Reference value :  7.00893e-06
 Reference value :  7.00992e-06
 Reference value :  7.01107e-06
 Reference value :  7.01294e-06
 Reference value :  7.01544e-06
 Reference value :  7.01822e-06
 Reference value :  7.02044e-06
 Reference value :  7.02228e-06
 Reference value :  7.02402e-06
 Reference value :  7.02570e-06
 Reference value :  7.02746e-06
 Reference value :  7.02945e-06
 Reference value :  7.03162e-06
 Reference value :  7.03421e-06
 Reference value :  7.03806e-06
 Reference value :  7.04343e-06
 Reference value :  7.04937e-06
 Reference value :  7.05751e-06
 Reference value :  7.07224e-06
 Reference value :  7.09396e-06
 Reference value :  7.13480e-06
 Reference value :  7.20510e-06
 Reference value :  7.25010e-06
 Reference value :  7.25011e-06
 Reference value :  7.25013e-06
 Reference value :  7.25017e-06
 Reference value :  7.25020e-06
 Reference value :  7.25020e-06
 Reference value :  7.25020e-06
 Reference value :  7.25021e-06
 Reference value :  7.25021e-06
 Reference value :  7.25022e-06
 Reference value :  7.25025e-06
 Reference value :  7.25030e-06
 Reference value :  7.25039e-06
 Reference value :  7.25059e-06
 Reference value :  7.25093e-06
 Reference value :  7.25146e-06
 Reference value :  7.25211e-06
 Reference value :  7.25276e-06
 Reference value :  7.25350e-06
 Reference value :  7.25452e-06
 Reference value :  7.25526e-06
 Reference value :  7.25610e-06
 Reference value :  7.25698e-06
 Reference value :  7.25791e-06
 Reference value :  7.25918e-06
 Reference value :  7.26106e-06
 Reference value :  7.26321e-06
 Reference value :  7.26641e-06
 Reference value :  7.27064e-06
 Reference value :  7.27909e-06
 Reference value :  7.29600e-06
 Reference value :  7.32466e-06
 Reference value :  7.38198e-06
 Reference value :  7.48960e-06
 Reference value :  7.50000e-06
 Reference value :  7.50001e-06
 Reference value :  7.50003e-06
 Reference value :  7.50007e-06
 Reference value :  7.50010e-06
 Reference value :  7.50010e-06
 Reference value :  7.50011e-06
 Reference value :  7.50013e-06
 Reference value :  7.50016e-06
 Reference value :  7.50023e-06
 Reference value :  7.50037e-06
 Reference value :  7.50055e-06
 Reference value :  7.50091e-06
 Reference value :  7.50141e-06
 Reference value :  7.50195e-06
 Reference value :  7.50253e-06
 Reference value :  7.50318e-06
 Reference value :  7.50385e-06
 Reference value :  7.50463e-06
 Reference value :  7.50545e-06
 Reference value :  7.50636e-06
 Reference value :  7.50756e-06
 Reference value :  7.50880e-06
 Reference value :  7.51011e-06
 Reference value :  7.51156e-06
 Reference value :  7.51305e-06
 Reference value :  7.51445e-06
 Reference value :  7.51592e-06
 Reference value :  7.51744e-06
 Reference value :  7.51919e-06
 Reference value :  7.52262e-06
 Reference value :  7.52761e-06
 Reference value :  7.53761e-06
 Reference value :  7.55760e-06
 Reference value :  7.59738e-06
 Reference value :  7.67695e-06
 Reference value :  7.75010e-06
 Reference value :  7.75011e-06
 Reference value :  7.75013e-06
 Reference value :  7.75017e-06
 Reference value :  7.75020e-06
 Reference value :  7.75020e-06
 Reference value :  7.75020e-06
 Reference value :  7.75021e-06
 Reference value :  7.75021e-06
 Reference value :  7.75022e-06
 Reference value :  7.75025e-06
 Reference value :  7.75029e-06
 Reference value :  7.75039e-06
 Reference value :  7.75058e-06
 Reference value :  7.75092e-06
 Reference value :  7.75145e-06
 Reference value :  7.75209e-06
 Reference value :  7.75275e-06
 Reference value :  7.75348e-06
 Reference value :  7.75450e-06
 Reference value :  7.75522e-06
 Reference value :  7.75606e-06
 Reference value :  7.75679e-06
 Reference value :  7.75761e-06
 Reference value :  7.75861e-06
 Reference value :  7.75973e-06
 Reference value :  7.76197e-06
 Reference value :  7.76433e-06
 Reference value :  7.76831e-06
 Reference value :  7.77326e-06
 Reference value :  7.78315e-06
 Reference value :  7.80295e-06
 Reference value :  7.84253e-06
 Reference value :  7.92169e-06
 Reference value :  8.00000e-06
 Reference value :  8.00001e-06
 Reference value :  8.00003e-06
 Reference value :  8.00007e-06
 Reference value :  8.00010e-06
 Reference value :  8.00010e-06
 Reference value :  8.00011e-06
 Reference value :  8.00013e-06
 Reference value :  8.00016e-06
 Reference value :  8.00023e-06
 Reference value :  8.00037e-06
 Reference value :  8.00055e-06
 Reference value :  8.00090e-06
 Reference value :  8.00141e-06
 Reference value :  8.00195e-06
 Reference value :  8.00253e-06
 Reference value :  8.00318e-06
 Reference value :  8.00386e-06
 Reference value :  8.00462e-06
 Reference value :  8.00544e-06
 Reference value :  8.00628e-06
 Reference value :  8.00725e-06
 Reference value :  8.00803e-06
 Reference value :  8.00894e-06
 Reference value :  8.00988e-06
 Reference value :  8.01105e-06
 Reference value :  8.01283e-06
 Reference value :  8.01565e-06
 Reference value :  8.01864e-06
 Reference value :  8.02101e-06
 Reference value :  8.02361e-06
 Reference value :  8.02686e-06
 Reference value :  8.03030e-06
 Reference value :  8.03572e-06
 Reference value :  8.04284e-06
 Reference value :  8.05382e-06
 Reference value :  8.07097e-06
 Reference value :  8.09889e-06
 Reference value :  8.14779e-06
 Reference value :  8.22780e-06
 Reference value :  8.25010e-06
 Reference value :  8.25011e-06
 Reference value :  8.25013e-06
 Reference value :  8.25017e-06
 Reference value :  8.25020e-06
 Reference value :  8.25020e-06
 Reference value :  8.25020e-06
 Reference value :  8.25021e-06
 Reference value :  8.25021e-06
 Reference value :  8.25022e-06
 Reference value :  8.25025e-06
 Reference value :  8.25029e-06
 Reference value :  8.25039e-06
 Reference value :  8.25058e-06
 Reference value :  8.25096e-06
 Reference value :  8.25147e-06
 Reference value :  8.25214e-06
 Reference value :  8.25278e-06
 Reference value :  8.25353e-06
 Reference value :  8.25455e-06
 Reference value :  8.25555e-06
 Reference value :  8.25694e-06
 Reference value :  8.25849e-06
 Reference value :  8.25999e-06
 Reference value :  8.26246e-06
 Reference value :  8.26513e-06
 Reference value :  8.26940e-06
 Reference value :  8.27587e-06
 Reference value :  8.28882e-06
 Reference value :  8.31470e-06
 Reference value :  8.36646e-06
 Reference value :  8.46999e-06
 Reference value :  8.50000e-06
 Reference value :  8.50000e-06
 Reference value :  8.50000e-06
 Reference value :  8.50000e-06
 Reference value :  8.50000e-06
 Reference value :  8.50000e-06
 Reference value :  8.50000e-06
 Reference value :  8.50000e-06
 Reference value :  8.50000e-06
 Reference value :  8.50000e-06
 Reference value :  8.50001e-06
 Reference value :  8.50001e-06
 Reference value :  8.50002e-06
 Reference value :  8.50004e-06
 Reference value :  8.50008e-06
 Reference value :  8.50010e-06
 Reference value :  8.50010e-06
 Reference value :  8.50011e-06
 Reference value :  8.50012e-06
 Reference value :  8.50014e-06
 Reference value :  8.50018e-06
 Reference value :  8.50026e-06
 Reference value :  8.50043e-06
 Reference value :  8.50077e-06
 Reference value :  8.50128e-06
 Reference value :  8.50204e-06
 Reference value :  8.50282e-06
 Reference value :  8.50353e-06
 Reference value :  8.50429e-06
 Reference value :  8.50506e-06
 Reference value :  8.50587e-06
 Reference value :  8.50695e-06
 Reference value :  8.50809e-06
 Reference value :  8.51036e-06
 Reference value :  8.51180e-06
 Reference value :  8.51328e-06
 Reference value :  8.51497e-06
 Reference value :  8.51684e-06
 Reference value :  8.51968e-06
 Reference value :  8.52317e-06
 Reference value :  8.52789e-06
 Reference value :  8.53319e-06
 Reference value :  8.53695e-06
 Reference value :  8.54011e-06
 Reference value :  8.54307e-06
 Reference value :  8.54601e-06
 Reference value :  8.54841e-06
 Reference value :  8.55075e-06
 Reference value :  8.55251e-06
 Reference value :  8.55440e-06
 Reference value :  8.55649e-06
 Reference value :  8.55786e-06
 Reference value :  8.55975e-06
 Reference value :  8.56142e-06
 Reference value :  8.56315e-06
 Reference value :  8.56530e-06
 Reference value :  8.56759e-06
 Reference value :  8.57218e-06
 Reference value :  8.57744e-06
 Reference value :  8.58332e-06
 Reference value :  8.58999e-06
 Reference value :  8.59914e-06
 Reference value :  8.60545e-06
 Reference value :  8.61150e-06
 Reference value :  8.61858e-06
 Reference value :  8.62266e-06
 Reference value :  8.62680e-06
 Reference value :  8.63107e-06
 Reference value :  8.63588e-06
 Reference value :  8.64167e-06
 Reference value :  8.64773e-06
 Reference value :  8.65401e-06
 Reference value :  8.66132e-06
 Reference value :  8.67566e-06
 Reference value :  8.69420e-06
 Reference value :  8.72556e-06
 Reference value :  8.75010e-06
 Reference value :  8.75011e-06
 Reference value :  8.75013e-06
 Reference value :  8.75017e-06
 Reference value :  8.75020e-06
 Reference value :  8.75020e-06
 Reference value :  8.75020e-06
 Reference value :  8.75021e-06
 Reference value :  8.75021e-06
 Reference value :  8.75022e-06
 Reference value :  8.75025e-06
 Reference value :  8.75030e-06
 Reference value :  8.75039e-06
 Reference value :  8.75059e-06
 Reference value :  8.75097e-06
 Reference value :  8.75148e-06
 Reference value :  8.75215e-06
 Reference value :  8.75280e-06
 Reference value :  8.75353e-06
 Reference value :  8.75446e-06
 Reference value :  8.75516e-06
 Reference value :  8.75598e-06
 Reference value :  8.75682e-06
 Reference value :  8.75770e-06
 Reference value :  8.75898e-06
 Reference value :  8.76058e-06
 Reference value :  8.76285e-06
 Reference value :  8.76565e-06
 Reference value :  8.76997e-06
 Reference value :  8.77745e-06
 Reference value :  8.79240e-06
 Reference value :  8.81996e-06
 Reference value :  8.87506e-06
 Reference value :  8.98527e-06
 Reference value :  9.00000e-06
 Reference value :  9.00001e-06
 Reference value :  9.00003e-06
 Reference value :  9.00007e-06
 Reference value :  9.00010e-06
 Reference value :  9.00010e-06
 Reference value :  9.00011e-06
 Reference value :  9.00013e-06
 Reference value :  9.00016e-06
 Reference value :  9.00023e-06
 Reference value :  9.00037e-06
 Reference value :  9.00055e-06
 Reference value :  9.00093e-06
 Reference value :  9.00144e-06
 Reference value :  9.00198e-06
 Reference value :  9.00253e-06
 Reference value :  9.00322e-06
 Reference value :  9.00390e-06
 Reference value :  9.00472e-06
 Reference value :  9.00556e-06
 Reference value :  9.00646e-06
 Reference value :  9.00772e-06
 Reference value :  9.00901e-06
 Reference value :  9.01125e-06
 Reference value :  9.01376e-06
 Reference value :  9.01565e-06
 Reference value :  9.01779e-06
 Reference value :  9.02049e-06
 Reference value :  9.02302e-06
 Reference value :  9.02584e-06
 Reference value :  9.03099e-06
 Reference value :  9.03784e-06
 Reference value :  9.04811e-06
 Reference value :  9.06829e-06
 Reference value :  9.09722e-06
 Reference value :  9.15508e-06
 Reference value :  9.25010e-06
 Reference value :  9.25011e-06
 Reference value :  9.25013e-06
 Reference value :  9.25017e-06
 Reference value :  9.25020e-06
 Reference value :  9.25020e-06
 Reference value :  9.25020e-06
 Reference value :  9.25021e-06
 Reference value :  9.25021e-06
 Reference value :  9.25022e-06
 Reference value :  9.25025e-06
 Reference value :  9.25029e-06
 Reference value :  9.25039e-06
 Reference value :  9.25058e-06
 Reference value :  9.25096e-06
 Reference value :  9.25148e-06
 Reference value :  9.25214e-06
 Reference value :  9.25279e-06
 Reference value :  9.25354e-06
 Reference value :  9.25459e-06
 Reference value :  9.25533e-06
 Reference value :  9.25617e-06
 Reference value :  9.25693e-06
 Reference value :  9.25776e-06
 Reference value :  9.25881e-06
 Reference value :  9.25984e-06
 Reference value :  9.26090e-06
 Reference value :  9.26242e-06
 Reference value :  9.26398e-06
 Reference value :  9.26642e-06
 Reference value :  9.26924e-06
 Reference value :  9.27341e-06
 Reference value :  9.28008e-06
 Reference value :  9.28923e-06
 Reference value :  9.30392e-06
 Reference value :  9.32718e-06
 Reference value :  9.37081e-06
 Reference value :  9.44095e-06
 Reference value :  9.50000e-06
 Reference value :  9.50001e-06
 Reference value :  9.50003e-06
 Reference value :  9.50007e-06
 Reference value :  9.50010e-06
 Reference value :  9.50010e-06
 Reference value :  9.50011e-06
 Reference value :  9.50013e-06
 Reference value :  9.50016e-06
 Reference value :  9.50023e-06
 Reference value :  9.50037e-06
 Reference value :  9.50055e-06
 Reference value :  9.50093e-06
 Reference value :  9.50144e-06
 Reference value :  9.50198e-06
 Reference value :  9.50256e-06
 Reference value :  9.50321e-06
 Reference value :  9.50388e-06
 Reference value :  9.50466e-06
 Reference value :  9.50549e-06
 Reference value :  9.50634e-06
 Reference value :  9.50715e-06
 Reference value :  9.50799e-06
 Reference value :  9.50892e-06
 Reference value :  9.50981e-06
 Reference value :  9.51106e-06
 Reference value :  9.51270e-06
 Reference value :  9.51517e-06
 Reference value :  9.51678e-06
 Reference value :  9.51864e-06
 Reference value :  9.52039e-06
 Reference value :  9.52207e-06
 Reference value :  9.52343e-06
 Reference value :  9.52487e-06
 Reference value :  9.52636e-06
 Reference value :  9.52816e-06
 Reference value :  9.52999e-06
 Reference value :  9.53276e-06
 Reference value :  9.53620e-06
 Reference value :  9.54307e-06
 Reference value :  9.55426e-06
 Reference value :  9.57335e-06
 Reference value :  9.60545e-06
 Reference value :  9.66360e-06
 Reference value :  9.73556e-06
 Reference value :  9.75010e-06
 Reference value :  9.75011e-06
 Reference value :  9.75013e-06
 Reference value :  9.75017e-06
 Reference value :  9.75020e-06
 Reference value :  9.75020e-06
 Reference value :  9.75020e-06
 Reference value :  9.75021e-06
 Reference value :  9.75021e-06
 Reference value :  9.75022e-06
 Reference value :  9.75025e-06
 Reference value :  9.75030e-06
 Reference value :  9.75039e-06
 Reference value :  9.75059e-06
 Reference value :  9.75093e-06
 Reference value :  9.75147e-06
 Reference value :  9.75211e-06
 Reference value :  9.75277e-06
 Reference value :  9.75350e-06
 Reference value :  9.75453e-06
 Reference value :  9.75527e-06
 Reference value :  9.75610e-06
 Reference value :  9.75699e-06
 Reference value :  9.75792e-06
 Reference value :  9.75919e-06
 Reference value :  9.76115e-06
 Reference value :  9.76328e-06
 Reference value :  9.76656e-06
 Reference value :  9.77077e-06
 Reference value :  9.77918e-06
 Reference value :  9.79601e-06
 Reference value :  9.82477e-06
 Reference value :  9.88227e-06
 Reference value :  9.99072e-06
 Reference value :  1.00000e-05
 Reference value :  1.00000e-05
 Reference value :  1.00000e-05
 Reference value :  1.00001e-05
 Reference value :  1.00001e-05
 Reference value :  1.00001e-05
 Reference value :  1.00001e-05
 Reference value :  1.00001e-05
 Reference value :  1.00002e-05
 Reference value :  1.00002e-05
 Reference value :  1.00004e-05
 Reference value :  1.00005e-05
 Reference value :  1.00009e-05
 Reference value :  1.00014e-05
 Reference value :  1.00020e-05
 Reference value :  1.00025e-05
 Reference value :  1.00032e-05
 Reference value :  1.00039e-05
 Reference value :  1.00046e-05
 Reference value :  1.00054e-05
 Reference value :  1.00063e-05
 Reference value :  1.00076e-05
 Reference value :  1.00088e-05
 Reference value :  1.00101e-05
 Reference value :  1.00116e-05
 Reference value :  1.00131e-05
 Reference value :  1.00146e-05
 Reference value :  1.00162e-05
 Reference value :  1.00178e-05
 Reference value :  1.00196e-05
 Reference value :  1.00233e-05
 Reference value :  1.00305e-05
 Reference value :  1.00428e-05
 Reference value :  1.00675e-05
 Reference value :  1.01169e-05
 Reference value :  1.02157e-05
 Reference value :  1.02501e-05
 Reference value :  1.02501e-05
 Reference value :  1.02501e-05
 Reference value :  1.02502e-05
 Reference value :  1.02502e-05
 Reference value :  1.02502e-05
 Reference value :  1.02502e-05
 Reference value :  1.02502e-05
 Reference value :  1.02502e-05
 Reference value :  1.02502e-05
 Reference value :  1.02502e-05
 Reference value :  1.02503e-05
 Reference value :  1.02504e-05
 Reference value :  1.02506e-05
 Reference value :  1.02509e-05
 Reference value :  1.02515e-05
 Reference value :  1.02521e-05
 Reference value :  1.02528e-05
 Reference value :  1.02535e-05
 Reference value :  1.02545e-05
 Reference value :  1.02552e-05
 Reference value :  1.02561e-05
 Reference value :  1.02568e-05
 Reference value :  1.02577e-05
 Reference value :  1.02587e-05
 Reference value :  1.02598e-05
 Reference value :  1.02609e-05
 Reference value :  1.02626e-05
 Reference value :  1.02645e-05
 Reference value :  1.02670e-05
 Reference value :  1.02702e-05
 Reference value :  1.02748e-05
 Reference value :  1.02841e-05
 Reference value :  1.03009e-05
 Reference value :  1.03346e-05
 Reference value :  1.04018e-05
 Reference value :  1.05000e-05
 Reference value :  1.05000e-05
 Reference value :  1.05000e-05
 Reference value :  1.05001e-05
 Reference value :  1.05001e-05
 Reference value :  1.05001e-05
 Reference value :  1.05001e-05
 Reference value :  1.05001e-05
 Reference value :  1.05002e-05
 Reference value :  1.05002e-05
 Reference value :  1.05004e-05
 Reference value :  1.05005e-05
 Reference value :  1.05009e-05
 Reference value :  1.05014e-05
 Reference value :  1.05020e-05
 Reference value :  1.05025e-05
 Reference value :  1.05032e-05
 Reference value :  1.05039e-05
 Reference value :  1.05046e-05
 Reference value :  1.05054e-05
 Reference value :  1.05062e-05
 Reference value :  1.05070e-05
 Reference value :  1.05079e-05
 Reference value :  1.05087e-05
 Reference value :  1.05097e-05
 Reference value :  1.05110e-05
 Reference value :  1.05123e-05
 Reference value :  1.05143e-05
 Reference value :  1.05162e-05
 Reference value :  1.05181e-05
 Reference value :  1.05201e-05
 Reference value :  1.05218e-05
 Reference value :  1.05235e-05
 Reference value :  1.05253e-05
 Reference value :  1.05270e-05
 Reference value :  1.05292e-05
 Reference value :  1.05312e-05
 Reference value :  1.05344e-05
 Reference value :  1.05385e-05
 Reference value :  1.05467e-05
 Reference value :  1.05581e-05
 Reference value :  1.05786e-05
 Reference value :  1.06109e-05
 Reference value :  1.06633e-05
 Reference value :  1.07372e-05
 Reference value :  1.07501e-05
 Reference value :  1.07501e-05
 Reference value :  1.07501e-05
 Reference value :  1.07502e-05
 Reference value :  1.07502e-05
 Reference value :  1.07502e-05
 Reference value :  1.07502e-05
 Reference value :  1.07502e-05
 Reference value :  1.07502e-05
 Reference value :  1.07502e-05
 Reference value :  1.07502e-05
 Reference value :  1.07503e-05
 Reference value :  1.07504e-05
 Reference value :  1.07506e-05
 Reference value :  1.07509e-05
 Reference value :  1.07515e-05
 Reference value :  1.07521e-05
 Reference value :  1.07528e-05
 Reference value :  1.07535e-05
 Reference value :  1.07545e-05
 Reference value :  1.07552e-05
 Reference value :  1.07561e-05
 Reference value :  1.07570e-05
 Reference value :  1.07579e-05
 Reference value :  1.07592e-05
 Reference value :  1.07610e-05
 Reference value :  1.07632e-05
 Reference value :  1.07664e-05
 Reference value :  1.07706e-05
 Reference value :  1.07790e-05
 Reference value :  1.07959e-05
 Reference value :  1.08245e-05
 Reference value :  1.08817e-05
 Reference value :  1.09393e-05
 Reference value :  1.10000e-05
 Reference value :  1.10000e-05
 Reference value :  1.10000e-05
 Reference value :  1.10001e-05
 Reference value :  1.10001e-05
 Reference value :  1.10001e-05
 Reference value :  1.10001e-05
 Reference value :  1.10001e-05
 Reference value :  1.10002e-05
 Reference value :  1.10002e-05
 Reference value :  1.10004e-05
 Reference value :  1.10005e-05
 Reference value :  1.10009e-05
 Reference value :  1.10014e-05
 Reference value :  1.10020e-05
 Reference value :  1.10025e-05
 Reference value :  1.10032e-05
 Reference value :  1.10038e-05
 Reference value :  1.10046e-05
 Reference value :  1.10054e-05
 Reference value :  1.10063e-05
 Reference value :  1.10076e-05
 Reference value :  1.10088e-05
 Reference value :  1.10101e-05
 Reference value :  1.10116e-05
 Reference value :  1.10131e-05
 Reference value :  1.10145e-05
 Reference value :  1.10161e-05
 Reference value :  1.10177e-05
 Reference value :  1.10195e-05
 Reference value :  1.10230e-05
 Reference value :  1.10301e-05
 Reference value :  1.10426e-05
 Reference value :  1.10677e-05
 Reference value :  1.11178e-05
 Reference value :  1.12179e-05
 Reference value :  1.12501e-05
 Reference value :  1.12501e-05
 Reference value :  1.12501e-05
 Reference value :  1.12502e-05
 Reference value :  1.12502e-05
 Reference value :  1.12502e-05
 Reference value :  1.12502e-05
 Reference value :  1.12502e-05
 Reference value :  1.12502e-05
 Reference value :  1.12502e-05
 Reference value :  1.12502e-05
 Reference value :  1.12503e-05
 Reference value :  1.12504e-05
 Reference value :  1.12506e-05
 Reference value :  1.12509e-05
 Reference value :  1.12515e-05
 Reference value :  1.12521e-05
 Reference value :  1.12527e-05
 Reference value :  1.12535e-05
 Reference value :  1.12545e-05
 Reference value :  1.12552e-05
 Reference value :  1.12561e-05
 Reference value :  1.12568e-05
 Reference value :  1.12577e-05
 Reference value :  1.12587e-05
 Reference value :  1.12598e-05
 Reference value :  1.12609e-05
 Reference value :  1.12626e-05
 Reference value :  1.12645e-05
 Reference value :  1.12670e-05
 Reference value :  1.12702e-05
 Reference value :  1.12748e-05
 Reference value :  1.12841e-05
 Reference value :  1.12992e-05
 Reference value :  1.13295e-05
 Reference value :  1.13901e-05
 Reference value :  1.15000e-05
 Reference value :  1.15000e-05
 Reference value :  1.15000e-05
 Reference value :  1.15001e-05
 Reference value :  1.15001e-05
 Reference value :  1.15001e-05
 Reference value :  1.15001e-05
 Reference value :  1.15001e-05
 Reference value :  1.15002e-05
 Reference value :  1.15002e-05
 Reference value :  1.15004e-05
 Reference value :  1.15005e-05
 Reference value :  1.15009e-05
 Reference value :  1.15014e-05
 Reference value :  1.15020e-05
 Reference value :  1.15025e-05
 Reference value :  1.15032e-05
 Reference value :  1.15039e-05
 Reference value :  1.15046e-05
 Reference value :  1.15054e-05
 Reference value :  1.15063e-05
 Reference value :  1.15071e-05
 Reference value :  1.15080e-05
 Reference value :  1.15089e-05
 Reference value :  1.15098e-05
 Reference value :  1.15111e-05
 Reference value :  1.15126e-05
 Reference value :  1.15147e-05
 Reference value :  1.15163e-05
 Reference value :  1.15180e-05
 Reference value :  1.15198e-05
 Reference value :  1.15212e-05
 Reference value :  1.15226e-05
 Reference value :  1.15243e-05
 Reference value :  1.15259e-05
 Reference value :  1.15273e-05
 Reference value :  1.15293e-05
 Reference value :  1.15317e-05
 Reference value :  1.15343e-05
 Reference value :  1.15389e-05
 Reference value :  1.15451e-05
 Reference value :  1.15553e-05
 Reference value :  1.15722e-05
 Reference value :  1.15990e-05
 Reference value :  1.16237e-05
 Reference value :  1.16525e-05
 Reference value :  1.16789e-05
 Reference value :  1.17039e-05
 Reference value :  1.17180e-05
 Reference value :  1.17300e-05
 Reference value :  1.17429e-05
 Reference value :  1.17501e-05
 Reference value :  1.17501e-05
 Reference value :  1.17501e-05
 Reference value :  1.17502e-05
 Reference value :  1.17502e-05
 Reference value :  1.17502e-05
 Reference value :  1.17502e-05
 Reference value :  1.17502e-05
 Reference value :  1.17502e-05
 Reference value :  1.17502e-05
 Reference value :  1.17502e-05
 Reference value :  1.17503e-05
 Reference value :  1.17504e-05
 Reference value :  1.17506e-05
 Reference value :  1.17509e-05
 Reference value :  1.17515e-05
 Reference value :  1.17521e-05
 Reference value :  1.17528e-05
 Reference value :  1.17535e-05
 Reference value :  1.17545e-05
 Reference value :  1.17553e-05
 Reference value :  1.17561e-05
 Reference value :  1.17570e-05
 Reference value :  1.17579e-05
 Reference value :  1.17592e-05
 Reference value :  1.17610e-05
 Reference value :  1.17632e-05
 Reference value :  1.17664e-05
 Reference value :  1.17706e-05
 Reference value :  1.17792e-05
 Reference value :  1.17959e-05
 Reference value :  1.18246e-05
 Reference value :  1.18820e-05
 Reference value :  1.19445e-05
 Reference value :  1.20000e-05
 Reference value :  1.20000e-05
 Reference value :  1.20000e-05
 Reference value :  1.20001e-05
 Reference value :  1.20001e-05
 Reference value :  1.20001e-05
 Reference value :  1.20001e-05
 Reference value :  1.20001e-05
 Reference value :  1.20002e-05
 Reference value :  1.20002e-05
 Reference value :  1.20004e-05
 Reference value :  1.20005e-05
 Reference value :  1.20009e-05
 Reference value :  1.20014e-05
 Reference value :  1.20020e-05
 Reference value :  1.20025e-05
 Reference value :  1.20032e-05
 Reference value :  1.20038e-05
 Reference value :  1.20047e-05
 Reference value :  1.20055e-05
 Reference value :  1.20064e-05
 Reference value :  1.20076e-05
 Reference value :  1.20089e-05
 Reference value :  1.20102e-05
 Reference value :  1.20115e-05
 Reference value :  1.20129e-05
 Reference value :  1.20143e-05
 Reference value :  1.20158e-05
 Reference value :  1.20173e-05
 Reference value :  1.20190e-05
 Reference value :  1.20224e-05
 Reference value :  1.20283e-05
 Reference value :  1.20401e-05
 Reference value :  1.20636e-05
 Reference value :  1.21107e-05
 Reference value :  1.21466e-05
 Reference value :  1.21831e-05
 Reference value :  1.22176e-05
 Reference value :  1.22501e-05
 Reference value :  1.22501e-05
 Reference value :  1.22501e-05
 Reference value :  1.22502e-05
 Reference value :  1.22502e-05
 Reference value :  1.22502e-05
 Reference value :  1.22502e-05
 Reference value :  1.22502e-05
 Reference value :  1.22502e-05
 Reference value :  1.22502e-05
 Reference value :  1.22502e-05
 Reference value :  1.22503e-05
 Reference value :  1.22504e-05
 Reference value :  1.22506e-05
 Reference value :  1.22509e-05
 Reference value :  1.22515e-05
 Reference value :  1.22521e-05
 Reference value :  1.22527e-05
 Reference value :  1.22535e-05
 Reference value :  1.22545e-05
 Reference value :  1.22552e-05
 Reference value :  1.22561e-05
 Reference value :  1.22569e-05
 Reference value :  1.22577e-05
 Reference value :  1.22587e-05
 Reference value :  1.22598e-05
 Reference value :  1.22610e-05
 Reference value :  1.22626e-05
 Reference value :  1.22646e-05
 Reference value :  1.22671e-05
 Reference value :  1.22703e-05
 Reference value :  1.22750e-05
 Reference value :  1.22843e-05
 Reference value :  1.23016e-05
 Reference value :  1.23363e-05
 Reference value :  1.24055e-05
 Reference value :  1.25000e-05
 Reference value :  1.25000e-05
 Reference value :  1.25000e-05
 Reference value :  1.25001e-05
 Reference value :  1.25001e-05
 Reference value :  1.25001e-05
 Reference value :  1.25001e-05
 Reference value :  1.25001e-05
 Reference value :  1.25002e-05
 Reference value :  1.25002e-05
 Reference value :  1.25004e-05
 Reference value :  1.25005e-05
 Reference value :  1.25009e-05
 Reference value :  1.25014e-05
 Reference value :  1.25020e-05
 Reference value :  1.25025e-05
 Reference value :  1.25032e-05
 Reference value :  1.25039e-05
 Reference value :  1.25046e-05
 Reference value :  1.25054e-05
 Reference value :  1.25062e-05
 Reference value :  1.25070e-05
 Reference value :  1.25079e-05
 Reference value :  1.25088e-05
 Reference value :  1.25097e-05
 Reference value :  1.25110e-05
 Reference value :  1.25125e-05
 Reference value :  1.25139e-05
 Reference value :  1.25155e-05
 Reference value :  1.25172e-05
 Reference value :  1.25189e-05
 Reference value :  1.25206e-05
 Reference value :  1.25218e-05
 Reference value :  1.25232e-05
 Reference value :  1.25246e-05
 Reference value :  1.25260e-05
 Reference value :  1.25278e-05
 Reference value :  1.25295e-05
 Reference value :  1.25324e-05
 Reference value :  1.25351e-05
 Reference value :  1.25383e-05
 Reference value :  1.25410e-05
 Reference value :  1.25436e-05
 Reference value :  1.25461e-05
 Reference value :  1.25486e-05
 Reference value :  1.25513e-05
 Reference value :  1.25566e-05
 Reference value :  1.25644e-05
 Reference value :  1.25800e-05
 Reference value :  1.26022e-05
 Reference value :  1.26248e-05
 Reference value :  1.26426e-05
 Reference value :  1.26638e-05
 Reference value :  1.26890e-05
 Reference value :  1.27307e-05
 Reference value :  1.27501e-05
 Reference value :  1.27501e-05
 Reference value :  1.27501e-05
 Reference value :  1.27502e-05
 Reference value :  1.27502e-05
 Reference value :  1.27502e-05
 Reference value :  1.27502e-05
 Reference value :  1.27502e-05
 Reference value :  1.27502e-05
 Reference value :  1.27502e-05
 Reference value :  1.27502e-05
 Reference value :  1.27503e-05
 Reference value :  1.27504e-05
 Reference value :  1.27506e-05
 Reference value :  1.27509e-05
 Reference value :  1.27515e-05
 Reference value :  1.27521e-05
 Reference value :  1.27528e-05
 Reference value :  1.27535e-05
 Reference value :  1.27545e-05
 Reference value :  1.27553e-05
 Reference value :  1.27561e-05
 Reference value :  1.27570e-05
 Reference value :  1.27579e-05
 Reference value :  1.27592e-05
 Reference value :  1.27610e-05
 Reference value :  1.27632e-05
 Reference value :  1.27663e-05
 Reference value :  1.27707e-05
 Reference value :  1.27793e-05
 Reference value :  1.27960e-05
 Reference value :  1.28249e-05
 Reference value :  1.28827e-05
 Reference value :  1.29984e-05
 Reference value :  1.30000e-05
 Reference value :  1.30000e-05
 Reference value :  1.30000e-05
 Reference value :  1.30001e-05
 Reference value :  1.30001e-05
 Reference value :  1.30001e-05
 Reference value :  1.30001e-05
 Reference value :  1.30001e-05
 Reference value :  1.30002e-05
 Reference value :  1.30002e-05
 Reference value :  1.30004e-05
 Reference value :  1.30005e-05
 Reference value :  1.30009e-05
 Reference value :  1.30014e-05
 Reference value :  1.30020e-05
 Reference value :  1.30025e-05
 Reference value :  1.30032e-05
 Reference value :  1.30039e-05
 Reference value :  1.30046e-05
 Reference value :  1.30055e-05
 Reference value :  1.30063e-05
 Reference value :  1.30075e-05
 Reference value :  1.30087e-05
 Reference value :  1.30099e-05
 Reference value :  1.30113e-05
 Reference value :  1.30128e-05
 Reference value :  1.30143e-05
 Reference value :  1.30158e-05
 Reference value :  1.30174e-05
 Reference value :  1.30192e-05
 Reference value :  1.30224e-05
 Reference value :  1.30272e-05
 Reference value :  1.30368e-05
 Reference value :  1.30555e-05
 Reference value :  1.30920e-05
 Reference value :  1.31651e-05
 Reference value :  1.32501e-05
 Reference value :  1.32501e-05
 Reference value :  1.32501e-05
 Reference value :  1.32502e-05
 Reference value :  1.32502e-05
 Reference value :  1.32502e-05
 Reference value :  1.32502e-05
 Reference value :  1.32502e-05
 Reference value :  1.32502e-05
 Reference value :  1.32502e-05
 Reference value :  1.32502e-05
 Reference value :  1.32503e-05
 Reference value :  1.32504e-05
 Reference value :  1.32506e-05
 Reference value :  1.32509e-05
 Reference value :  1.32515e-05
 Reference value :  1.32521e-05
 Reference value :  1.32527e-05
 Reference value :  1.32535e-05
 Reference value :  1.32545e-05
 Reference value :  1.32552e-05
 Reference value :  1.32561e-05
 Reference value :  1.32568e-05
 Reference value :  1.32576e-05
 Reference value :  1.32586e-05
 Reference value :  1.32598e-05
 Reference value :  1.32620e-05
 Reference value :  1.32644e-05
 Reference value :  1.32683e-05
 Reference value :  1.32732e-05
 Reference value :  1.32830e-05
 Reference value :  1.33027e-05
 Reference value :  1.33403e-05
 Reference value :  1.34156e-05
 Reference value :  1.35000e-05
 Reference value :  1.35000e-05
 Reference value :  1.35000e-05
 Reference value :  1.35001e-05
 Reference value :  1.35001e-05
 Reference value :  1.35001e-05
 Reference value :  1.35001e-05
 Reference value :  1.35001e-05
 Reference value :  1.35002e-05
 Reference value :  1.35002e-05
 Reference value :  1.35004e-05
 Reference value :  1.35005e-05
 Reference value :  1.35009e-05
 Reference value :  1.35014e-05
 Reference value :  1.35020e-05
 Reference value :  1.35025e-05
 Reference value :  1.35032e-05
 Reference value :  1.35039e-05
 Reference value :  1.35047e-05
 Reference value :  1.35055e-05
 Reference value :  1.35064e-05
 Reference value :  1.35073e-05
 Reference value :  1.35081e-05
 Reference value :  1.35090e-05
 Reference value :  1.35100e-05
 Reference value :  1.35111e-05
 Reference value :  1.35130e-05
 Reference value :  1.35155e-05
 Reference value :  1.35180e-05
 Reference value :  1.35202e-05
 Reference value :  1.35219e-05
 Reference value :  1.35235e-05
 Reference value :  1.35251e-05
 Reference value :  1.35268e-05
 Reference value :  1.35288e-05
 Reference value :  1.35308e-05
 Reference value :  1.35335e-05
 Reference value :  1.35372e-05
 Reference value :  1.35434e-05
 Reference value :  1.35537e-05
 Reference value :  1.35704e-05
 Reference value :  1.35884e-05
 Reference value :  1.36059e-05
 Reference value :  1.36359e-05
 Reference value :  1.36673e-05
 Reference value :  1.37302e-05
 Reference value :  1.37501e-05
 Reference value :  1.37501e-05
 Reference value :  1.37501e-05
 Reference value :  1.37502e-05
 Reference value :  1.37502e-05
 Reference value :  1.37502e-05
 Reference value :  1.37502e-05
 Reference value :  1.37502e-05
 Reference value :  1.37502e-05
 Reference value :  1.37502e-05
 Reference value :  1.37502e-05
 Reference value :  1.37503e-05
 Reference value :  1.37504e-05
 Reference value :  1.37506e-05
 Reference value :  1.37509e-05
 Reference value :  1.37515e-05
 Reference value :  1.37521e-05
 Reference value :  1.37527e-05
 Reference value :  1.37535e-05
 Reference value :  1.37545e-05
 Reference value :  1.37552e-05
 Reference value :  1.37561e-05
 Reference value :  1.37570e-05
 Reference value :  1.37579e-05
 Reference value :  1.37592e-05
 Reference value :  1.37610e-05
 Reference value :  1.37632e-05
 Reference value :  1.37663e-05
 Reference value :  1.37706e-05
 Reference value :  1.37793e-05
 Reference value :  1.37956e-05
 Reference value :  1.38241e-05
 Reference value :  1.38809e-05
 Reference value :  1.39945e-05
 Reference value :  1.40000e-05
 Reference value :  1.40000e-05
 Reference value :  1.40000e-05
 Reference value :  1.40001e-05
 Reference value :  1.40001e-05
 Reference value :  1.40001e-05
 Reference value :  1.40001e-05
 Reference value :  1.40001e-05
 Reference value :  1.40002e-05
 Reference value :  1.40002e-05
 Reference value :  1.40004e-05
 Reference value :  1.40005e-05
 Reference value :  1.40009e-05
 Reference value :  1.40014e-05
 Reference value :  1.40020e-05
 Reference value :  1.40025e-05
 Reference value :  1.40032e-05
 Reference value :  1.40039e-05
 Reference value :  1.40046e-05
 Reference value :  1.40055e-05
 Reference value :  1.40064e-05
 Reference value :  1.40076e-05
 Reference value :  1.40088e-05
 Reference value :  1.40100e-05
 Reference value :  1.40113e-05
 Reference value :  1.40127e-05
 Reference value :  1.40141e-05
 Reference value :  1.40155e-05
 Reference value :  1.40170e-05
 Reference value :  1.40187e-05
 Reference value :  1.40220e-05
 Reference value :  1.40270e-05
 Reference value :  1.40369e-05
 Reference value :  1.40568e-05
 Reference value :  1.40965e-05
 Reference value :  1.41760e-05
 Reference value :  1.42501e-05
 Reference value :  1.42501e-05
 Reference value :  1.42501e-05
 Reference value :  1.42502e-05
 Reference value :  1.42502e-05
 Reference value :  1.42502e-05
 Reference value :  1.42502e-05
 Reference value :  1.42502e-05
 Reference value :  1.42502e-05
 Reference value :  1.42502e-05
 Reference value :  1.42502e-05
 Reference value :  1.42503e-05
 Reference value :  1.42504e-05
 Reference value :  1.42506e-05
 Reference value :  1.42509e-05
 Reference value :  1.42515e-05
 Reference value :  1.42521e-05
 Reference value :  1.42527e-05
 Reference value :  1.42535e-05
 Reference value :  1.42545e-05
 Reference value :  1.42552e-05
 Reference value :  1.42561e-05
 Reference value :  1.42568e-05
 Reference value :  1.42577e-05
 Reference value :  1.42587e-05
 Reference value :  1.42598e-05
 Reference value :  1.42620e-05
 Reference value :  1.42644e-05
 Reference value :  1.42683e-05
 Reference value :  1.42733e-05
 Reference value :  1.42832e-05
 Reference value :  1.43029e-05
 Reference value :  1.43408e-05
 Reference value :  1.44166e-05
 Reference value :  1.45000e-05
 Reference value :  1.45000e-05
 Reference value :  1.45000e-05
 Reference value :  1.45001e-05
 Reference value :  1.45001e-05
 Reference value :  1.45001e-05
 Reference value :  1.45001e-05
 Reference value :  1.45001e-05
 Reference value :  1.45002e-05
 Reference value :  1.45002e-05
 Reference value :  1.45004e-05
 Reference value :  1.45005e-05
 Reference value :  1.45009e-05
 Reference value :  1.45014e-05
 Reference value :  1.45020e-05
 Reference value :  1.45025e-05
 Reference value :  1.45032e-05
 Reference value :  1.45039e-05
 Reference value :  1.45046e-05
 Reference value :  1.45055e-05
 Reference value :  1.45063e-05
 Reference value :  1.45072e-05
 Reference value :  1.45080e-05
 Reference value :  1.45089e-05
 Reference value :  1.45099e-05
 Reference value :  1.45110e-05
 Reference value :  1.45129e-05
 Reference value :  1.45153e-05
 Reference value :  1.45180e-05
 Reference value :  1.45203e-05
 Reference value :  1.45221e-05
 Reference value :  1.45238e-05
 Reference value :  1.45254e-05
 Reference value :  1.45272e-05
 Reference value :  1.45291e-05
 Reference value :  1.45313e-05
 Reference value :  1.45338e-05
 Reference value :  1.45376e-05
 Reference value :  1.45430e-05
 Reference value :  1.45517e-05
 Reference value :  1.45611e-05
 Reference value :  1.45723e-05
 Reference value :  1.45870e-05
 Reference value :  1.46100e-05
 Reference value :  1.46559e-05
 Reference value :  1.47374e-05
 Reference value :  1.47501e-05
 Reference value :  1.47501e-05
 Reference value :  1.47501e-05
 Reference value :  1.47502e-05
 Reference value :  1.47502e-05
 Reference value :  1.47502e-05
 Reference value :  1.47502e-05
 Reference value :  1.47502e-05
 Reference value :  1.47502e-05
 Reference value :  1.47502e-05
 Reference value :  1.47502e-05
 Reference value :  1.47503e-05
 Reference value :  1.47504e-05
 Reference value :  1.47506e-05
 Reference value :  1.47509e-05
 Reference value :  1.47515e-05
 Reference value :  1.47521e-05
 Reference value :  1.47527e-05
 Reference value :  1.47535e-05
 Reference value :  1.47545e-05
 Reference value :  1.47552e-05
 Reference value :  1.47561e-05
 Reference value :  1.47570e-05
 Reference value :  1.47579e-05
 Reference value :  1.47592e-05
 Reference value :  1.47610e-05
 Reference value :  1.47632e-05
 Reference value :  1.47663e-05
 Reference value :  1.47706e-05
 Reference value :  1.47792e-05
 Reference value :  1.47957e-05
 Reference value :  1.48242e-05
 Reference value :  1.48812e-05
 Reference value :  1.49952e-05
 Reference value :  1.50000e-05
 Reference value :  1.50000e-05
 Reference value :  1.50000e-05
 Reference value :  1.50001e-05
 Reference value :  1.50001e-05
 Reference value :  1.50001e-05
 Reference value :  1.50001e-05
 Reference value :  1.50001e-05
 Reference value :  1.50002e-05
 Reference value :  1.50002e-05
 Reference value :  1.50004e-05
 Reference value :  1.50005e-05
 Reference value :  1.50009e-05
 Reference value :  1.50014e-05
 Reference value :  1.50020e-05
 Reference value :  1.50025e-05
 Reference value :  1.50032e-05
 Reference value :  1.50039e-05
 Reference value :  1.50046e-05
 Reference value :  1.50055e-05
 Reference value :  1.50063e-05
 Reference value :  1.50075e-05
 Reference value :  1.50087e-05
 Reference value :  1.50100e-05
 Reference value :  1.50115e-05
 Reference value :  1.50129e-05
 Reference value :  1.50143e-05
 Reference value :  1.50158e-05
 Reference value :  1.50174e-05
 Reference value :  1.50193e-05
 Reference value :  1.50226e-05
 Reference value :  1.50275e-05
 Reference value :  1.50372e-05
 Reference value :  1.50552e-05
 Reference value :  1.50894e-05
 Reference value :  1.51578e-05
 Reference value :  1.52501e-05
 Reference value :  1.52501e-05
 Reference value :  1.52501e-05
 Reference value :  1.52502e-05
 Reference value :  1.52502e-05
 Reference value :  1.52502e-05
 Reference value :  1.52502e-05
 Reference value :  1.52502e-05
 Reference value :  1.52502e-05
 Reference value :  1.52502e-05
 Reference value :  1.52502e-05
 Reference value :  1.52503e-05
 Reference value :  1.52504e-05
 Reference value :  1.52506e-05
 Reference value :  1.52509e-05
 Reference value :  1.52515e-05
 Reference value :  1.52521e-05
 Reference value :  1.52527e-05
 Reference value :  1.52535e-05
 Reference value :  1.52545e-05
 Reference value :  1.52552e-05
 Reference value :  1.52561e-05
 Reference value :  1.52568e-05
 Reference value :  1.52577e-05
 Reference value :  1.52587e-05
 Reference value :  1.52598e-05
 Reference value :  1.52620e-05
 Reference value :  1.52644e-05
 Reference value :  1.52683e-05
 Reference value :  1.52733e-05
 Reference value :  1.52832e-05
 Reference value :  1.53029e-05
 Reference value :  1.53409e-05
 Reference value :  1.54169e-05
 Reference value :  1.55000e-05
 Reference value :  1.55012e-05
 Reference value :  1.55035e-05
 Reference value :  1.55048e-05
 Reference value :  1.55060e-05
 Reference value :  1.55070e-05
 Reference value :  1.55081e-05
 Reference value :  1.55090e-05
 Reference value :  1.55100e-05
 Reference value :  1.55113e-05
 Reference value :  1.55127e-05
 Reference value :  1.55152e-05
 Reference value :  1.55181e-05
 Reference value :  1.55203e-05
 Reference value :  1.55227e-05
 Reference value :  1.55245e-05
 Reference value :  1.55265e-05
 Reference value :  1.55285e-05
 Reference value :  1.55307e-05
 Reference value :  1.55330e-05
 Reference value :  1.55357e-05
 Reference value :  1.55396e-05
 Reference value :  1.55448e-05
 Reference value :  1.55507e-05
 Reference value :  1.55596e-05
 Reference value :  1.55742e-05
 Reference value :  1.55966e-05
 Reference value :  1.56347e-05
 Reference value :  1.57110e-05
 Reference value :  1.57501e-05
 Reference value :  1.57501e-05
 Reference value :  1.57501e-05
 Reference value :  1.57502e-05
 Reference value :  1.57502e-05
 Reference value :  1.57502e-05
 Reference value :  1.57502e-05
 Reference value :  1.57502e-05
 Reference value :  1.57502e-05
 Reference value :  1.57502e-05
 Reference value :  1.57502e-05
 Reference value :  1.57503e-05
 Reference value :  1.57504e-05
 Reference value :  1.57506e-05
 Reference value :  1.57509e-05
 Reference value :  1.57515e-05
 Reference value :  1.57521e-05
 Reference value :  1.57528e-05
 Reference value :  1.57535e-05
 Reference value :  1.57545e-05
 Reference value :  1.57553e-05
 Reference value :  1.57561e-05
 Reference value :  1.57570e-05
 Reference value :  1.57579e-05
 Reference value :  1.57592e-05
 Reference value :  1.57611e-05
 Reference value :  1.57632e-05
 Reference value :  1.57665e-05
 Reference value :  1.57707e-05
 Reference value :  1.57791e-05
 Reference value :  1.57960e-05
 Reference value :  1.58245e-05
[...]
 Reference value :  1.74383e-04
 Reference value :  1.74498e-04
 Reference value :  1.74500e-04
 Reference value :  1.74500e-04
 Reference value :  1.74500e-04
 Reference value :  1.74500e-04
 Reference value :  1.74500e-04
 Reference value :  1.74500e-04
 Reference value :  1.74500e-04
 Reference value :  1.74500e-04
 Reference value :  1.74500e-04
 Reference value :  1.74500e-04
 Reference value :  1.74500e-04
 Reference value :  1.74501e-04
 Reference value :  1.74501e-04
 Reference value :  1.74501e-04
 Reference value :  1.74502e-04
 Reference value :  1.74503e-04
 Reference value :  1.74503e-04
 Reference value :  1.74504e-04
 Reference value :  1.74505e-04
 Reference value :  1.74505e-04
 Reference value :  1.74506e-04
 Reference value :  1.74508e-04
 Reference value :  1.74509e-04
 Reference value :  1.74510e-04
 Reference value :  1.74511e-04
 Reference value :  1.74513e-04
 Reference value :  1.74514e-04
 Reference value :  1.74516e-04
 Reference value :  1.74517e-04
 Reference value :  1.74519e-04
 Reference value :  1.74522e-04
 Reference value :  1.74527e-04
 Reference value :  1.74537e-04
 Reference value :  1.74557e-04
 Reference value :  1.74594e-04
 Reference value :  1.74668e-04
 Reference value :  1.74750e-04
 Reference value :  1.74750e-04
 Reference value :  1.74750e-04
 Reference value :  1.74750e-04
 Reference value :  1.74750e-04
 Reference value :  1.74750e-04
 Reference value :  1.74750e-04
 Reference value :  1.74750e-04
 Reference value :  1.74750e-04
 Reference value :  1.74750e-04
 Reference value :  1.74750e-04
 Reference value :  1.74750e-04
 Reference value :  1.74750e-04
 Reference value :  1.74751e-04
 Reference value :  1.74751e-04
 Reference value :  1.74751e-04
 Reference value :  1.74752e-04
 Reference value :  1.74753e-04
 Reference value :  1.74753e-04
 Reference value :  1.74754e-04
 Reference value :  1.74755e-04
 Reference value :  1.74756e-04
 Reference value :  1.74757e-04
 Reference value :  1.74758e-04
 Reference value :  1.74759e-04
 Reference value :  1.74760e-04
 Reference value :  1.74761e-04
 Reference value :  1.74763e-04
 Reference value :  1.74764e-04
 Reference value :  1.74767e-04
 Reference value :  1.74770e-04
 Reference value :  1.74775e-04
 Reference value :  1.74784e-04
 Reference value :  1.74799e-04
 Reference value :  1.74829e-04
 Reference value :  1.74890e-04
 Reference value :  1.75000e-04
 Reference value :  1.75000e-04
 Reference value :  1.75000e-04
 Reference value :  1.75000e-04
 Reference value :  1.75000e-04
 Reference value :  1.75000e-04
 Reference value :  1.75000e-04
 Reference value :  1.75000e-04
 Reference value :  1.75000e-04
 Reference value :  1.75000e-04
 Reference value :  1.75000e-04
 Reference value :  1.75001e-04
 Reference value :  1.75001e-04
 Reference value :  1.75001e-04
 Reference value :  1.75002e-04
 Reference value :  1.75003e-04
 Reference value :  1.75003e-04
 Reference value :  1.75004e-04
 Reference value :  1.75005e-04
 Reference value :  1.75005e-04
 Reference value :  1.75006e-04
 Reference value :  1.75007e-04
 Reference value :  1.75008e-04
 Reference value :  1.75009e-04
 Reference value :  1.75010e-04
 Reference value :  1.75011e-04
 Reference value :  1.75013e-04
 Reference value :  1.75014e-04
 Reference value :  1.75015e-04
 Reference value :  1.75017e-04
 Reference value :  1.75018e-04
 Reference value :  1.75020e-04
 Reference value :  1.75021e-04
 Reference value :  1.75022e-04
 Reference value :  1.75023e-04
 Reference value :  1.75025e-04
 Reference value :  1.75026e-04
 Reference value :  1.75028e-04
 Reference value :  1.75030e-04
 Reference value :  1.75033e-04
 Reference value :  1.75036e-04
 Reference value :  1.75043e-04
 Reference value :  1.75050e-04
 Reference value :  1.75057e-04
 Reference value :  1.75067e-04
 Reference value :  1.75076e-04
 Reference value :  1.75081e-04
 Reference value :  1.75088e-04
 Reference value :  1.75094e-04
 Reference value :  1.75101e-04
 Reference value :  1.75114e-04
 Reference value :  1.75129e-04
 Reference value :  1.75155e-04
 Reference value :  1.75193e-04
 Reference value :  1.75250e-04
 Reference value :  1.75250e-04
 Reference value :  1.75250e-04
 Reference value :  1.75250e-04
 Reference value :  1.75250e-04
 Reference value :  1.75250e-04
 Reference value :  1.75250e-04
 Reference value :  1.75250e-04
 Reference value :  1.75250e-04
 Reference value :  1.75250e-04
 Reference value :  1.75250e-04
 Reference value :  1.75250e-04
 Reference value :  1.75250e-04
 Reference value :  1.75251e-04
 Reference value :  1.75251e-04
 Reference value :  1.75251e-04
 Reference value :  1.75252e-04
 Reference value :  1.75253e-04
 Reference value :  1.75253e-04
 Reference value :  1.75254e-04
 Reference value :  1.75255e-04
 Reference value :  1.75256e-04
 Reference value :  1.75257e-04
 Reference value :  1.75258e-04
 Reference value :  1.75259e-04
 Reference value :  1.75261e-04
 Reference value :  1.75263e-04
 Reference value :  1.75266e-04
 Reference value :  1.75271e-04
 Reference value :  1.75279e-04
 Reference value :  1.75296e-04
 Reference value :  1.75324e-04
 Reference value :  1.75381e-04
 Reference value :  1.75495e-04
 Reference value :  1.75500e-04
 Reference value :  1.75500e-04
 Reference value :  1.75500e-04
 Reference value :  1.75500e-04
 Reference value :  1.75500e-04
 Reference value :  1.75500e-04
 Reference value :  1.75500e-04
 Reference value :  1.75500e-04
 Reference value :  1.75500e-04
 Reference value :  1.75500e-04
 Reference value :  1.75500e-04
 Reference value :  1.75501e-04
 Reference value :  1.75501e-04
 Reference value :  1.75501e-04
 Reference value :  1.75502e-04
 Reference value :  1.75503e-04
 Reference value :  1.75503e-04
 Reference value :  1.75504e-04
 Reference value :  1.75505e-04
 Reference value :  1.75505e-04
 Reference value :  1.75506e-04
 Reference value :  1.75508e-04
 Reference value :  1.75509e-04
 Reference value :  1.75510e-04
 Reference value :  1.75511e-04
 Reference value :  1.75513e-04
 Reference value :  1.75514e-04
 Reference value :  1.75515e-04
 Reference value :  1.75517e-04
 Reference value :  1.75519e-04
 Reference value :  1.75522e-04
 Reference value :  1.75527e-04
 Reference value :  1.75537e-04
 Reference value :  1.75557e-04
 Reference value :  1.75597e-04
 Reference value :  1.75676e-04
 Reference value :  1.75750e-04
 Reference value :  1.75750e-04
 Reference value :  1.75750e-04
 Reference value :  1.75750e-04
 Reference value :  1.75750e-04
 Reference value :  1.75750e-04
 Reference value :  1.75750e-04
 Reference value :  1.75750e-04
 Reference value :  1.75750e-04
 Reference value :  1.75750e-04
 Reference value :  1.75750e-04
 Reference value :  1.75750e-04
 Reference value :  1.75750e-04
 Reference value :  1.75751e-04
 Reference value :  1.75751e-04
 Reference value :  1.75751e-04
 Reference value :  1.75752e-04
 Reference value :  1.75753e-04
 Reference value :  1.75753e-04
 Reference value :  1.75754e-04
 Reference value :  1.75755e-04
 Reference value :  1.75756e-04
 Reference value :  1.75757e-04
 Reference value :  1.75758e-04
 Reference value :  1.75759e-04
 Reference value :  1.75760e-04
 Reference value :  1.75762e-04
 Reference value :  1.75764e-04
 Reference value :  1.75768e-04
 Reference value :  1.75773e-04
 Reference value :  1.75783e-04
 Reference value :  1.75803e-04
 Reference value :  1.75841e-04
 Reference value :  1.75917e-04
 Reference value :  1.76000e-04
 Reference value :  1.76000e-04
 Reference value :  1.76000e-04
 Reference value :  1.76000e-04
 Reference value :  1.76000e-04
 Reference value :  1.76000e-04
 Reference value :  1.76000e-04
 Reference value :  1.76000e-04
 Reference value :  1.76000e-04
 Reference value :  1.76000e-04
 Reference value :  1.76000e-04
 Reference value :  1.76001e-04
 Reference value :  1.76001e-04
 Reference value :  1.76001e-04
 Reference value :  1.76002e-04
 Reference value :  1.76003e-04
 Reference value :  1.76003e-04
 Reference value :  1.76004e-04
 Reference value :  1.76005e-04
 Reference value :  1.76005e-04
 Reference value :  1.76006e-04
 Reference value :  1.76007e-04
 Reference value :  1.76008e-04
 Reference value :  1.76009e-04
 Reference value :  1.76010e-04
 Reference value :  1.76011e-04
 Reference value :  1.76013e-04
 Reference value :  1.76015e-04
 Reference value :  1.76018e-04
 Reference value :  1.76020e-04
 Reference value :  1.76022e-04
 Reference value :  1.76024e-04
 Reference value :  1.76025e-04
 Reference value :  1.76027e-04
 Reference value :  1.76029e-04
 Reference value :  1.76031e-04
 Reference value :  1.76034e-04
 Reference value :  1.76038e-04
 Reference value :  1.76043e-04
 Reference value :  1.76050e-04
 Reference value :  1.76057e-04
 Reference value :  1.76063e-04
 Reference value :  1.76068e-04
 Reference value :  1.76074e-04
 Reference value :  1.76081e-04
 Reference value :  1.76089e-04
 Reference value :  1.76097e-04
 Reference value :  1.76105e-04
 Reference value :  1.76121e-04
 Reference value :  1.76138e-04
 Reference value :  1.76165e-04
 Reference value :  1.76208e-04
 Reference value :  1.76250e-04
 Reference value :  1.76250e-04
 Reference value :  1.76250e-04
 Reference value :  1.76250e-04
 Reference value :  1.76250e-04
 Reference value :  1.76250e-04
 Reference value :  1.76250e-04
 Reference value :  1.76250e-04
 Reference value :  1.76250e-04
 Reference value :  1.76250e-04
 Reference value :  1.76250e-04
 Reference value :  1.76250e-04
 Reference value :  1.76250e-04
 Reference value :  1.76251e-04
 Reference value :  1.76251e-04
 Reference value :  1.76251e-04
 Reference value :  1.76252e-04
 Reference value :  1.76253e-04
 Reference value :  1.76253e-04
 Reference value :  1.76254e-04
 Reference value :  1.76255e-04
 Reference value :  1.76256e-04
 Reference value :  1.76257e-04
 Reference value :  1.76258e-04
 Reference value :  1.76259e-04
 Reference value :  1.76261e-04
 Reference value :  1.76263e-04
 Reference value :  1.76266e-04
 Reference value :  1.76270e-04
 Reference value :  1.76279e-04
 Reference value :  1.76296e-04
 Reference value :  1.76324e-04
 Reference value :  1.76382e-04
 Reference value :  1.76496e-04
 Reference value :  1.76500e-04
 Reference value :  1.76500e-04
 Reference value :  1.76500e-04
 Reference value :  1.76500e-04
 Reference value :  1.76500e-04
 Reference value :  1.76500e-04
 Reference value :  1.76500e-04
 Reference value :  1.76500e-04
 Reference value :  1.76500e-04
 Reference value :  1.76500e-04
 Reference value :  1.76500e-04
 Reference value :  1.76501e-04
 Reference value :  1.76501e-04
 Reference value :  1.76501e-04
 Reference value :  1.76502e-04
 Reference value :  1.76503e-04
 Reference value :  1.76503e-04
 Reference value :  1.76504e-04
 Reference value :  1.76505e-04
 Reference value :  1.76505e-04
 Reference value :  1.76506e-04
 Reference value :  1.76508e-04
 Reference value :  1.76509e-04
 Reference value :  1.76510e-04
 Reference value :  1.76512e-04
 Reference value :  1.76513e-04
 Reference value :  1.76514e-04
 Reference value :  1.76516e-04
 Reference value :  1.76518e-04
 Reference value :  1.76519e-04
 Reference value :  1.76523e-04
 Reference value :  1.76528e-04
 Reference value :  1.76538e-04
 Reference value :  1.76556e-04
 Reference value :  1.76589e-04
 Reference value :  1.76655e-04
 Reference value :  1.76750e-04
 Reference value :  1.76750e-04
 Reference value :  1.76750e-04
 Reference value :  1.76750e-04
 Reference value :  1.76750e-04
 Reference value :  1.76750e-04
 Reference value :  1.76750e-04
 Reference value :  1.76750e-04
 Reference value :  1.76750e-04
 Reference value :  1.76750e-04
 Reference value :  1.76750e-04
 Reference value :  1.76750e-04
 Reference value :  1.76750e-04
 Reference value :  1.76751e-04
 Reference value :  1.76751e-04
 Reference value :  1.76751e-04
 Reference value :  1.76752e-04
 Reference value :  1.76753e-04
 Reference value :  1.76753e-04
 Reference value :  1.76754e-04
 Reference value :  1.76755e-04
 Reference value :  1.76756e-04
 Reference value :  1.76757e-04
 Reference value :  1.76758e-04
 Reference value :  1.76759e-04
 Reference value :  1.76760e-04
 Reference value :  1.76761e-04
 Reference value :  1.76763e-04
 Reference value :  1.76764e-04
 Reference value :  1.76767e-04
 Reference value :  1.76770e-04
 Reference value :  1.76775e-04
 Reference value :  1.76784e-04
 Reference value :  1.76800e-04
 Reference value :  1.76833e-04
 Reference value :  1.76898e-04
 Reference value :  1.77000e-04
 Reference value :  1.77000e-04
 Reference value :  1.77000e-04
 Reference value :  1.77000e-04
 Reference value :  1.77000e-04
 Reference value :  1.77000e-04
 Reference value :  1.77000e-04
 Reference value :  1.77000e-04
 Reference value :  1.77000e-04
 Reference value :  1.77000e-04
 Reference value :  1.77000e-04
 Reference value :  1.77001e-04
 Reference value :  1.77001e-04
 Reference value :  1.77001e-04
 Reference value :  1.77002e-04
 Reference value :  1.77003e-04
 Reference value :  1.77003e-04
 Reference value :  1.77004e-04
 Reference value :  1.77005e-04
 Reference value :  1.77005e-04
 Reference value :  1.77006e-04
 Reference value :  1.77007e-04
 Reference value :  1.77008e-04
 Reference value :  1.77009e-04
 Reference value :  1.77010e-04
 Reference value :  1.77011e-04
 Reference value :  1.77012e-04
 Reference value :  1.77014e-04
 Reference value :  1.77016e-04
 Reference value :  1.77017e-04
 Reference value :  1.77019e-04
 Reference value :  1.77021e-04
 Reference value :  1.77022e-04
 Reference value :  1.77023e-04
 Reference value :  1.77024e-04
 Reference value :  1.77026e-04
 Reference value :  1.77027e-04
 Reference value :  1.77029e-04
 Reference value :  1.77031e-04
 Reference value :  1.77034e-04
 Reference value :  1.77038e-04
 Reference value :  1.77042e-04
 Reference value :  1.77049e-04
 Reference value :  1.77056e-04
 Reference value :  1.77070e-04
 Reference value :  1.77092e-04
 Reference value :  1.77131e-04
 Reference value :  1.77201e-04
 Reference value :  1.77250e-04
 Reference value :  1.77250e-04
 Reference value :  1.77250e-04
 Reference value :  1.77250e-04
 Reference value :  1.77250e-04
 Reference value :  1.77250e-04
 Reference value :  1.77250e-04
 Reference value :  1.77250e-04
 Reference value :  1.77250e-04
 Reference value :  1.77250e-04
 Reference value :  1.77250e-04
 Reference value :  1.77250e-04
 Reference value :  1.77250e-04
 Reference value :  1.77251e-04
 Reference value :  1.77251e-04
 Reference value :  1.77251e-04
 Reference value :  1.77252e-04
 Reference value :  1.77253e-04
 Reference value :  1.77253e-04
 Reference value :  1.77255e-04
 Reference value :  1.77255e-04
 Reference value :  1.77256e-04
 Reference value :  1.77257e-04
 Reference value :  1.77258e-04
 Reference value :  1.77259e-04
 Reference value :  1.77261e-04
 Reference value :  1.77263e-04
 Reference value :  1.77266e-04
 Reference value :  1.77270e-04
 Reference value :  1.77279e-04
 Reference value :  1.77296e-04
 Reference value :  1.77324e-04
 Reference value :  1.77382e-04
 Reference value :  1.77496e-04
 Reference value :  1.77500e-04
 Reference value :  1.77500e-04
 Reference value :  1.77500e-04
 Reference value :  1.77500e-04
 Reference value :  1.77500e-04
 Reference value :  1.77500e-04
 Reference value :  1.77500e-04
 Reference value :  1.77500e-04
 Reference value :  1.77500e-04
 Reference value :  1.77500e-04
 Reference value :  1.77500e-04
 Reference value :  1.77501e-04
 Reference value :  1.77501e-04
 Reference value :  1.77501e-04
 Reference value :  1.77502e-04
 Reference value :  1.77502e-04
 Reference value :  1.77503e-04
 Reference value :  1.77504e-04
 Reference value :  1.77505e-04
 Reference value :  1.77505e-04
 Reference value :  1.77506e-04
 Reference value :  1.77508e-04
 Reference value :  1.77509e-04
 Reference value :  1.77510e-04
 Reference value :  1.77512e-04
 Reference value :  1.77513e-04
 Reference value :  1.77514e-04
 Reference value :  1.77516e-04
 Reference value :  1.77518e-04
 Reference value :  1.77519e-04
 Reference value :  1.77523e-04
 Reference value :  1.77528e-04
 Reference value :  1.77538e-04
 Reference value :  1.77557e-04
 Reference value :  1.77595e-04
 Reference value :  1.77669e-04
 Reference value :  1.77750e-04
 Reference value :  1.77750e-04
 Reference value :  1.77750e-04
 Reference value :  1.77750e-04
 Reference value :  1.77750e-04
 Reference value :  1.77750e-04
 Reference value :  1.77750e-04
 Reference value :  1.77750e-04
 Reference value :  1.77750e-04
 Reference value :  1.77750e-04
 Reference value :  1.77750e-04
 Reference value :  1.77750e-04
 Reference value :  1.77750e-04
 Reference value :  1.77751e-04
 Reference value :  1.77751e-04
 Reference value :  1.77751e-04
 Reference value :  1.77752e-04
 Reference value :  1.77753e-04
 Reference value :  1.77753e-04
 Reference value :  1.77754e-04
 Reference value :  1.77755e-04
 Reference value :  1.77756e-04
 Reference value :  1.77757e-04
 Reference value :  1.77758e-04
 Reference value :  1.77759e-04
 Reference value :  1.77760e-04
 Reference value :  1.77761e-04
 Reference value :  1.77763e-04
 Reference value :  1.77764e-04
 Reference value :  1.77767e-04
 Reference value :  1.77770e-04
 Reference value :  1.77775e-04
 Reference value :  1.77784e-04
 Reference value :  1.77799e-04
 Reference value :  1.77831e-04
 Reference value :  1.77893e-04
 Reference value :  1.78000e-04
 Reference value :  1.78000e-04
 Reference value :  1.78000e-04
 Reference value :  1.78000e-04
 Reference value :  1.78000e-04
 Reference value :  1.78000e-04
 Reference value :  1.78000e-04
 Reference value :  1.78000e-04
 Reference value :  1.78000e-04
 Reference value :  1.78000e-04
 Reference value :  1.78000e-04
 Reference value :  1.78001e-04
 Reference value :  1.78001e-04
 Reference value :  1.78001e-04
 Reference value :  1.78002e-04
 Reference value :  1.78003e-04
 Reference value :  1.78003e-04
 Reference value :  1.78004e-04
 Reference value :  1.78005e-04
 Reference value :  1.78005e-04
 Reference value :  1.78006e-04
 Reference value :  1.78007e-04
 Reference value :  1.78008e-04
 Reference value :  1.78009e-04
 Reference value :  1.78010e-04
 Reference value :  1.78011e-04
 Reference value :  1.78013e-04
 Reference value :  1.78015e-04
 Reference value :  1.78016e-04
 Reference value :  1.78018e-04
 Reference value :  1.78020e-04
 Reference value :  1.78021e-04
 Reference value :  1.78023e-04
 Reference value :  1.78025e-04
 Reference value :  1.78027e-04
 Reference value :  1.78029e-04
 Reference value :  1.78033e-04
 Reference value :  1.78038e-04
 Reference value :  1.78048e-04
 Reference value :  1.78061e-04
 Reference value :  1.78083e-04
 Reference value :  1.78108e-04
 Reference value :  1.78151e-04
 Reference value :  1.78191e-04
 Reference value :  1.78214e-04
 Reference value :  1.78240e-04
 Reference value :  1.78250e-04
 Reference value :  1.78250e-04
 Reference value :  1.78250e-04
 Reference value :  1.78250e-04
 Reference value :  1.78250e-04
 Reference value :  1.78250e-04
 Reference value :  1.78250e-04
 Reference value :  1.78250e-04
 Reference value :  1.78250e-04
 Reference value :  1.78250e-04
 Reference value :  1.78250e-04
 Reference value :  1.78250e-04
 Reference value :  1.78250e-04
 Reference value :  1.78251e-04
 Reference value :  1.78251e-04
 Reference value :  1.78251e-04
 Reference value :  1.78252e-04
 Reference value :  1.78253e-04
 Reference value :  1.78254e-04
 Reference value :  1.78255e-04
 Reference value :  1.78256e-04
 Reference value :  1.78257e-04
 Reference value :  1.78258e-04
 Reference value :  1.78260e-04
 Reference value :  1.78262e-04
 Reference value :  1.78265e-04
 Reference value :  1.78269e-04
 Reference value :  1.78276e-04
 Reference value :  1.78289e-04
 Reference value :  1.78315e-04
 Reference value :  1.78359e-04
 Reference value :  1.78433e-04
 Reference value :  1.78500e-04
No. of Data Rows : 27681
ngspice-44 done
