
Note: Compatibility modes selected: hs a


Circuit: ** sch_path: /home/ece/cace/sar-adc-using-sky130-pdk/runs/run_2025-09-11_05-02-58/parameters/dnl/run_0/sar_output_dnl.sch

option SCALE: Scale is set to 1e-06 for instance and model parameters
option SCALE: Scale is set to 1e-06 for instance and model parameters
option SCALE: Scale is set to 1e-06 for instance and model parameters
option SCALE: Scale is set to 1e-06 for instance and model parameters
Doing analysis at TEMP = 27.000000 and TNOM = 27.000000

Using KLU as Direct Linear Solver
Operating point simulation skipped by 'uic',
  now using transient initial conditions.
 Reference value :  1.00000e-12
 Reference value :  1.02772e-12
 Reference value :  1.08316e-12
 Reference value :  1.19404e-12
 Reference value :  1.33849e-12
 Reference value :  1.62739e-12
 Reference value :  2.20519e-12
 Reference value :  3.06328e-12
 Reference value :  3.96409e-12
 Reference value :  5.17314e-12
 Reference value :  6.88297e-12
 Reference value :  9.99938e-12
 Reference value :  1.36439e-11
 Reference value :  2.02701e-11
 Reference value :  2.71349e-11
 Reference value :  3.59867e-11
 Reference value :  4.68180e-11
 Reference value :  6.52593e-11
 Reference value :  8.57083e-11
 Reference value :  1.00000e-10
 Reference value :  1.01181e-10
 Reference value :  1.03544e-10
 Reference value :  1.08268e-10
 Reference value :  1.17718e-10
 Reference value :  1.36617e-10
 Reference value :  1.74416e-10
 Reference value :  2.50012e-10
 Reference value :  4.01206e-10
 Reference value :  5.61307e-10
 Reference value :  8.24329e-10
 Reference value :  1.17150e-09
 Reference value :  1.62905e-09
 Reference value :  2.36352e-09
 Reference value :  3.07422e-09
 Reference value :  3.69372e-09
 Reference value :  4.48433e-09
 Reference value :  5.28987e-09
 Reference value :  6.20205e-09
 Reference value :  7.53022e-09
 Reference value :  8.82618e-09
 Reference value :  9.93085e-09
 Reference value :  1.10167e-08
 Reference value :  1.20377e-08
 Reference value :  1.30030e-08
 Reference value :  1.47687e-08
 Reference value :  1.68233e-08
 Reference value :  2.04336e-08
 Reference value :  2.39912e-08
 Reference value :  2.69842e-08
 Reference value :  2.97073e-08
 Reference value :  3.25221e-08
 Reference value :  3.60066e-08
 Reference value :  4.10640e-08
 Reference value :  4.71805e-08
 Reference value :  5.90079e-08
 Reference value :  7.83345e-08
 Reference value :  1.15384e-07
 Reference value :  1.72600e-07
 Reference value :  2.47050e-07
 Reference value :  2.50100e-07
 Reference value :  2.50110e-07
 Reference value :  2.50130e-07
 Reference value :  2.50170e-07
 Reference value :  2.50200e-07
 Reference value :  2.50201e-07
 Reference value :  2.50202e-07
 Reference value :  2.50204e-07
 Reference value :  2.50208e-07
 Reference value :  2.50216e-07
 Reference value :  2.50233e-07
 Reference value :  2.50267e-07
 Reference value :  2.50335e-07
 Reference value :  2.50412e-07
 Reference value :  2.50567e-07
 Reference value :  2.50716e-07
 Reference value :  2.51015e-07
 Reference value :  2.51339e-07
 Reference value :  2.51860e-07
 Reference value :  2.52428e-07
 Reference value :  2.53221e-07
 Reference value :  2.54044e-07
 Reference value :  2.55123e-07
 Reference value :  2.55874e-07
 Reference value :  2.56731e-07
 Reference value :  2.57737e-07
 Reference value :  2.58847e-07
 Reference value :  2.60171e-07
 Reference value :  2.62412e-07
 Reference value :  2.64465e-07
 Reference value :  2.68070e-07
 Reference value :  2.72831e-07
 Reference value :  2.82354e-07
 Reference value :  2.98897e-07
 Reference value :  3.27160e-07
 Reference value :  3.83686e-07
 Reference value :  4.96738e-07
 Reference value :  5.00000e-07
 Reference value :  5.00010e-07
 Reference value :  5.00030e-07
 Reference value :  5.00070e-07
 Reference value :  5.00100e-07
 Reference value :  5.00104e-07
 Reference value :  5.00112e-07
 Reference value :  5.00129e-07
 Reference value :  5.00162e-07
 Reference value :  5.00229e-07
 Reference value :  5.00362e-07
 Reference value :  5.00537e-07
 Reference value :  5.00888e-07
 Reference value :  5.01502e-07
 Reference value :  5.02193e-07
 Reference value :  5.02817e-07
 Reference value :  5.03504e-07
 Reference value :  5.04212e-07
 Reference value :  5.05148e-07
 Reference value :  5.06118e-07
 Reference value :  5.07100e-07
 Reference value :  5.08379e-07
 Reference value :  5.09807e-07
 Reference value :  5.11739e-07
 Reference value :  5.14069e-07
 Reference value :  5.15916e-07
 Reference value :  5.17905e-07
 Reference value :  5.19991e-07
 Reference value :  5.22394e-07
 Reference value :  5.25104e-07
 Reference value :  5.27935e-07
 Reference value :  5.33189e-07
 Reference value :  5.41575e-07
 Reference value :  5.51296e-07
 Reference value :  5.70738e-07
 Reference value :  6.09623e-07
 Reference value :  6.73427e-07
 Reference value :  7.50100e-07
 Reference value :  7.50110e-07
 Reference value :  7.50130e-07
 Reference value :  7.50170e-07
 Reference value :  7.50200e-07
 Reference value :  7.50201e-07
 Reference value :  7.50202e-07
 Reference value :  7.50205e-07
 Reference value :  7.50211e-07
 Reference value :  7.50224e-07
 Reference value :  7.50248e-07
 Reference value :  7.50297e-07
 Reference value :  7.50395e-07
 Reference value :  7.50590e-07
 Reference value :  7.50977e-07
 Reference value :  7.51389e-07
 Reference value :  7.51911e-07
 Reference value :  7.52518e-07
 Reference value :  7.53316e-07
 Reference value :  7.54225e-07
 Reference value :  7.55414e-07
 Reference value :  7.56519e-07
 Reference value :  7.57522e-07
 Reference value :  7.58609e-07
 Reference value :  7.59816e-07
 Reference value :  7.61113e-07
 Reference value :  7.63557e-07
 Reference value :  7.66725e-07
 Reference value :  7.72290e-07
 Reference value :  7.83420e-07
 Reference value :  8.03446e-07
 Reference value :  8.42148e-07
 Reference value :  9.15408e-07
 Reference value :  1.00000e-06
 Reference value :  1.00001e-06
 Reference value :  1.00003e-06
 Reference value :  1.00007e-06
 Reference value :  1.00010e-06
 Reference value :  1.00010e-06
 Reference value :  1.00011e-06
 Reference value :  1.00013e-06
 Reference value :  1.00016e-06
 Reference value :  1.00023e-06
 Reference value :  1.00036e-06
 Reference value :  1.00054e-06
 Reference value :  1.00089e-06
 Reference value :  1.00151e-06
 Reference value :  1.00220e-06
 Reference value :  1.00282e-06
 Reference value :  1.00346e-06
 Reference value :  1.00415e-06
 Reference value :  1.00499e-06
 Reference value :  1.00587e-06
 Reference value :  1.00672e-06
 Reference value :  1.00777e-06
 Reference value :  1.00888e-06
 Reference value :  1.00997e-06
 Reference value :  1.01100e-06
 Reference value :  1.01243e-06
 Reference value :  1.01413e-06
 Reference value :  1.01684e-06
 Reference value :  1.01885e-06
 Reference value :  1.02101e-06
 Reference value :  1.02262e-06
 Reference value :  1.02414e-06
 Reference value :  1.02558e-06
 Reference value :  1.02714e-06
 Reference value :  1.02887e-06
 Reference value :  1.03113e-06
 Reference value :  1.03350e-06
 Reference value :  1.03815e-06
 Reference value :  1.04458e-06
 Reference value :  1.05583e-06
 Reference value :  1.07396e-06
 Reference value :  1.09985e-06
 Reference value :  1.13934e-06
 Reference value :  1.21715e-06
 Reference value :  1.25010e-06
 Reference value :  1.25011e-06
 Reference value :  1.25013e-06
 Reference value :  1.25017e-06
 Reference value :  1.25020e-06
 Reference value :  1.25020e-06
 Reference value :  1.25020e-06
 Reference value :  1.25021e-06
 Reference value :  1.25021e-06
 Reference value :  1.25022e-06
 Reference value :  1.25025e-06
 Reference value :  1.25029e-06
 Reference value :  1.25039e-06
 Reference value :  1.25058e-06
 Reference value :  1.25092e-06
 Reference value :  1.25135e-06
 Reference value :  1.25187e-06
 Reference value :  1.25248e-06
 Reference value :  1.25324e-06
 Reference value :  1.25412e-06
 Reference value :  1.25531e-06
 Reference value :  1.25621e-06
 Reference value :  1.25716e-06
 Reference value :  1.25824e-06
 Reference value :  1.25979e-06
 Reference value :  1.26124e-06
 Reference value :  1.26376e-06
 Reference value :  1.26673e-06
 Reference value :  1.27221e-06
 Reference value :  1.28319e-06
 Reference value :  1.30281e-06
 Reference value :  1.34205e-06
 Reference value :  1.41663e-06
 Reference value :  1.50000e-06
 Reference value :  1.50001e-06
 Reference value :  1.50003e-06
 Reference value :  1.50007e-06
 Reference value :  1.50010e-06
 Reference value :  1.50010e-06
 Reference value :  1.50011e-06
 Reference value :  1.50013e-06
 Reference value :  1.50016e-06
 Reference value :  1.50023e-06
 Reference value :  1.50036e-06
 Reference value :  1.50053e-06
 Reference value :  1.50087e-06
 Reference value :  1.50145e-06
 Reference value :  1.50221e-06
 Reference value :  1.50288e-06
 Reference value :  1.50356e-06
 Reference value :  1.50426e-06
 Reference value :  1.50525e-06
 Reference value :  1.50620e-06
 Reference value :  1.50718e-06
 Reference value :  1.50863e-06
 Reference value :  1.51001e-06
 Reference value :  1.51130e-06
 Reference value :  1.51269e-06
 Reference value :  1.51421e-06
 Reference value :  1.51589e-06
 Reference value :  1.51744e-06
 Reference value :  1.51949e-06
 Reference value :  1.52170e-06
 Reference value :  1.52556e-06
 Reference value :  1.53142e-06
 Reference value :  1.54166e-06
 Reference value :  1.56066e-06
 Reference value :  1.59414e-06
 Reference value :  1.65796e-06
 Reference value :  1.75010e-06
 Reference value :  1.75011e-06
 Reference value :  1.75013e-06
 Reference value :  1.75017e-06
 Reference value :  1.75020e-06
 Reference value :  1.75020e-06
 Reference value :  1.75020e-06
 Reference value :  1.75021e-06
 Reference value :  1.75021e-06
 Reference value :  1.75022e-06
 Reference value :  1.75025e-06
 Reference value :  1.75029e-06
 Reference value :  1.75039e-06
 Reference value :  1.75058e-06
 Reference value :  1.75092e-06
 Reference value :  1.75135e-06
 Reference value :  1.75187e-06
 Reference value :  1.75248e-06
 Reference value :  1.75324e-06
 Reference value :  1.75411e-06
 Reference value :  1.75529e-06
 Reference value :  1.75619e-06
 Reference value :  1.75714e-06
 Reference value :  1.75818e-06
 Reference value :  1.75931e-06
 Reference value :  1.76052e-06
 Reference value :  1.76295e-06
 Reference value :  1.76558e-06
 Reference value :  1.77020e-06
 Reference value :  1.77854e-06
 Reference value :  1.79522e-06
 Reference value :  1.82859e-06
 Reference value :  1.89349e-06
 Reference value :  2.00000e-06
 Reference value :  2.00001e-06
 Reference value :  2.00003e-06
 Reference value :  2.00007e-06
 Reference value :  2.00010e-06
 Reference value :  2.00010e-06
 Reference value :  2.00011e-06
 Reference value :  2.00013e-06
 Reference value :  2.00016e-06
 Reference value :  2.00023e-06
 Reference value :  2.00036e-06
 Reference value :  2.00053e-06
 Reference value :  2.00087e-06
 Reference value :  2.00145e-06
 Reference value :  2.00221e-06
 Reference value :  2.00288e-06
 Reference value :  2.00356e-06
 Reference value :  2.00427e-06
 Reference value :  2.00525e-06
 Reference value :  2.00603e-06
 Reference value :  2.00686e-06
 Reference value :  2.00785e-06
 Reference value :  2.00893e-06
 Reference value :  2.00992e-06
 Reference value :  2.01096e-06
 Reference value :  2.01237e-06
 Reference value :  2.01398e-06
 Reference value :  2.01628e-06
 Reference value :  2.01849e-06
 Reference value :  2.02053e-06
 Reference value :  2.02215e-06
 Reference value :  2.02370e-06
 Reference value :  2.02530e-06
 Reference value :  2.02697e-06
 Reference value :  2.02890e-06
 Reference value :  2.03082e-06
 Reference value :  2.03342e-06
 Reference value :  2.03795e-06
 Reference value :  2.04535e-06
 Reference value :  2.05946e-06
 Reference value :  2.08107e-06
 Reference value :  2.12216e-06
 Reference value :  2.17375e-06
 Reference value :  2.23603e-06
 Reference value :  2.25010e-06
 Reference value :  2.25011e-06
 Reference value :  2.25013e-06
 Reference value :  2.25017e-06
 Reference value :  2.25020e-06
 Reference value :  2.25020e-06
 Reference value :  2.25020e-06
 Reference value :  2.25021e-06
 Reference value :  2.25021e-06
 Reference value :  2.25022e-06
 Reference value :  2.25025e-06
 Reference value :  2.25029e-06
 Reference value :  2.25039e-06
 Reference value :  2.25058e-06
 Reference value :  2.25092e-06
 Reference value :  2.25135e-06
 Reference value :  2.25187e-06
 Reference value :  2.25248e-06
 Reference value :  2.25324e-06
 Reference value :  2.25411e-06
 Reference value :  2.25531e-06
 Reference value :  2.25620e-06
 Reference value :  2.25715e-06
 Reference value :  2.25824e-06
 Reference value :  2.25979e-06
 Reference value :  2.26124e-06
 Reference value :  2.26377e-06
 Reference value :  2.26673e-06
 Reference value :  2.27220e-06
 Reference value :  2.28315e-06
 Reference value :  2.30258e-06
 Reference value :  2.34144e-06
 Reference value :  2.41492e-06
 Reference value :  2.50000e-06
 Reference value :  2.50001e-06
 Reference value :  2.50003e-06
 Reference value :  2.50007e-06
 Reference value :  2.50010e-06
 Reference value :  2.50010e-06
 Reference value :  2.50011e-06
 Reference value :  2.50013e-06
 Reference value :  2.50016e-06
 Reference value :  2.50023e-06
 Reference value :  2.50036e-06
 Reference value :  2.50053e-06
 Reference value :  2.50087e-06
 Reference value :  2.50145e-06
 Reference value :  2.50221e-06
 Reference value :  2.50288e-06
 Reference value :  2.50355e-06
 Reference value :  2.50426e-06
 Reference value :  2.50524e-06
 Reference value :  2.50619e-06
 Reference value :  2.50718e-06
 Reference value :  2.50862e-06
 Reference value :  2.51001e-06
 Reference value :  2.51130e-06
 Reference value :  2.51267e-06
 Reference value :  2.51419e-06
 Reference value :  2.51586e-06
 Reference value :  2.51743e-06
 Reference value :  2.51963e-06
 Reference value :  2.52192e-06
 Reference value :  2.52610e-06
 Reference value :  2.53241e-06
 Reference value :  2.54342e-06
 Reference value :  2.56408e-06
 Reference value :  2.60017e-06
 Reference value :  2.66932e-06
 Reference value :  2.75010e-06
 Reference value :  2.75011e-06
 Reference value :  2.75013e-06
 Reference value :  2.75017e-06
 Reference value :  2.75020e-06
 Reference value :  2.75020e-06
 Reference value :  2.75020e-06
 Reference value :  2.75021e-06
 Reference value :  2.75021e-06
 Reference value :  2.75022e-06
 Reference value :  2.75025e-06
 Reference value :  2.75029e-06
 Reference value :  2.75039e-06
 Reference value :  2.75058e-06
 Reference value :  2.75092e-06
 Reference value :  2.75134e-06
 Reference value :  2.75187e-06
 Reference value :  2.75248e-06
 Reference value :  2.75323e-06
 Reference value :  2.75411e-06
 Reference value :  2.75529e-06
 Reference value :  2.75619e-06
 Reference value :  2.75714e-06
 Reference value :  2.75818e-06
 Reference value :  2.75930e-06
 Reference value :  2.76052e-06
 Reference value :  2.76294e-06
 Reference value :  2.76557e-06
 Reference value :  2.77017e-06
 Reference value :  2.77848e-06
 Reference value :  2.79509e-06
 Reference value :  2.82830e-06
 Reference value :  2.89280e-06
 Reference value :  3.00000e-06
 Reference value :  3.00001e-06
 Reference value :  3.00003e-06
 Reference value :  3.00007e-06
 Reference value :  3.00010e-06
 Reference value :  3.00010e-06
 Reference value :  3.00011e-06
 Reference value :  3.00013e-06
 Reference value :  3.00016e-06
 Reference value :  3.00023e-06
 Reference value :  3.00036e-06
 Reference value :  3.00053e-06
 Reference value :  3.00087e-06
 Reference value :  3.00145e-06
 Reference value :  3.00221e-06
 Reference value :  3.00288e-06
 Reference value :  3.00356e-06
 Reference value :  3.00426e-06
 Reference value :  3.00525e-06
 Reference value :  3.00603e-06
 Reference value :  3.00685e-06
 Reference value :  3.00785e-06
 Reference value :  3.00892e-06
 Reference value :  3.01001e-06
 Reference value :  3.01102e-06
 Reference value :  3.01246e-06
 Reference value :  3.01411e-06
 Reference value :  3.01671e-06
 Reference value :  3.01868e-06
 Reference value :  3.02078e-06
 Reference value :  3.02212e-06
 Reference value :  3.02351e-06
 Reference value :  3.02483e-06
 Reference value :  3.02632e-06
 Reference value :  3.02822e-06
 Reference value :  3.02996e-06
 Reference value :  3.03279e-06
 Reference value :  3.03605e-06
 Reference value :  3.04188e-06
 Reference value :  3.04762e-06
 Reference value :  3.05418e-06
 Reference value :  3.05897e-06
 Reference value :  3.06387e-06
 Reference value :  3.06796e-06
 Reference value :  3.07315e-06
 Reference value :  3.08057e-06
 Reference value :  3.08672e-06
 Reference value :  3.09381e-06
 Reference value :  3.10383e-06
 Reference value :  3.12047e-06
 Reference value :  3.14260e-06
 Reference value :  3.17900e-06
 Reference value :  3.22248e-06
 Reference value :  3.25010e-06
 Reference value :  3.25011e-06
 Reference value :  3.25013e-06
 Reference value :  3.25017e-06
 Reference value :  3.25020e-06
 Reference value :  3.25020e-06
 Reference value :  3.25020e-06
 Reference value :  3.25021e-06
 Reference value :  3.25021e-06
 Reference value :  3.25022e-06
 Reference value :  3.25025e-06
 Reference value :  3.25030e-06
 Reference value :  3.25039e-06
 Reference value :  3.25059e-06
 Reference value :  3.25094e-06
 Reference value :  3.25136e-06
 Reference value :  3.25188e-06
 Reference value :  3.25249e-06
 Reference value :  3.25325e-06
 Reference value :  3.25413e-06
 Reference value :  3.25526e-06
 Reference value :  3.25621e-06
 Reference value :  3.25719e-06
 Reference value :  3.25828e-06
 Reference value :  3.25984e-06
 Reference value :  3.26144e-06
 Reference value :  3.26385e-06
 Reference value :  3.26699e-06
 Reference value :  3.27245e-06
 Reference value :  3.28337e-06
 Reference value :  3.30252e-06
 Reference value :  3.34004e-06
 Reference value :  3.41026e-06
 Reference value :  3.50000e-06
 Reference value :  3.50001e-06
 Reference value :  3.50003e-06
 Reference value :  3.50007e-06
 Reference value :  3.50010e-06
 Reference value :  3.50010e-06
 Reference value :  3.50011e-06
 Reference value :  3.50013e-06
 Reference value :  3.50016e-06
 Reference value :  3.50023e-06
 Reference value :  3.50036e-06
 Reference value :  3.50053e-06
 Reference value :  3.50087e-06
 Reference value :  3.50145e-06
 Reference value :  3.50221e-06
 Reference value :  3.50284e-06
 Reference value :  3.50350e-06
 Reference value :  3.50419e-06
 Reference value :  3.50515e-06
 Reference value :  3.50611e-06
 Reference value :  3.50706e-06
 Reference value :  3.50854e-06
 Reference value :  3.50990e-06
 Reference value :  3.51126e-06
 Reference value :  3.51281e-06
 Reference value :  3.51440e-06
 Reference value :  3.51608e-06
 Reference value :  3.51791e-06
 Reference value :  3.51984e-06
 Reference value :  3.52371e-06
 Reference value :  3.53117e-06
 Reference value :  3.54341e-06
 Reference value :  3.56790e-06
 Reference value :  3.61333e-06
 Reference value :  3.70420e-06
 Reference value :  3.75010e-06
 Reference value :  3.75011e-06
 Reference value :  3.75013e-06
 Reference value :  3.75017e-06
 Reference value :  3.75020e-06
 Reference value :  3.75020e-06
 Reference value :  3.75020e-06
 Reference value :  3.75021e-06
 Reference value :  3.75021e-06
 Reference value :  3.75022e-06
 Reference value :  3.75025e-06
 Reference value :  3.75030e-06
 Reference value :  3.75039e-06
 Reference value :  3.75059e-06
 Reference value :  3.75094e-06
 Reference value :  3.75136e-06
 Reference value :  3.75188e-06
 Reference value :  3.75249e-06
 Reference value :  3.75325e-06
 Reference value :  3.75413e-06
 Reference value :  3.75531e-06
 Reference value :  3.75623e-06
 Reference value :  3.75720e-06
 Reference value :  3.75823e-06
 Reference value :  3.75934e-06
 Reference value :  3.76056e-06
 Reference value :  3.76184e-06
 Reference value :  3.76324e-06
 Reference value :  3.76537e-06
 Reference value :  3.76769e-06
 Reference value :  3.77129e-06
 Reference value :  3.77697e-06
 Reference value :  3.78834e-06
 Reference value :  3.81106e-06
 Reference value :  3.85652e-06
 Reference value :  3.94742e-06
 Reference value :  4.00000e-06
 Reference value :  4.00001e-06
 Reference value :  4.00003e-06
 Reference value :  4.00007e-06
 Reference value :  4.00010e-06
 Reference value :  4.00010e-06
 Reference value :  4.00011e-06
 Reference value :  4.00013e-06
 Reference value :  4.00016e-06
 Reference value :  4.00023e-06
 Reference value :  4.00036e-06
 Reference value :  4.00053e-06
 Reference value :  4.00087e-06
 Reference value :  4.00144e-06
 Reference value :  4.00221e-06
 Reference value :  4.00288e-06
 Reference value :  4.00356e-06
 Reference value :  4.00427e-06
 Reference value :  4.00513e-06
 Reference value :  4.00590e-06
 Reference value :  4.00673e-06
 Reference value :  4.00780e-06
 Reference value :  4.00879e-06
 Reference value :  4.00975e-06
 Reference value :  4.01077e-06
 Reference value :  4.01208e-06
 Reference value :  4.01371e-06
 Reference value :  4.01491e-06
 Reference value :  4.01628e-06
 Reference value :  4.01767e-06
 Reference value :  4.01926e-06
 Reference value :  4.02096e-06
 Reference value :  4.02259e-06
 Reference value :  4.02412e-06
 Reference value :  4.02562e-06
 Reference value :  4.02719e-06
 Reference value :  4.02895e-06
 Reference value :  4.03120e-06
 Reference value :  4.03360e-06
 Reference value :  4.03818e-06
 Reference value :  4.04354e-06
 Reference value :  4.04847e-06
 Reference value :  4.05264e-06
 Reference value :  4.05549e-06
 Reference value :  4.05850e-06
 Reference value :  4.06126e-06
 Reference value :  4.06495e-06
 Reference value :  4.07057e-06
 Reference value :  4.07861e-06
 Reference value :  4.09397e-06
 Reference value :  4.11568e-06
 Reference value :  4.13538e-06
 Reference value :  4.15933e-06
 Reference value :  4.18498e-06
 Reference value :  4.22485e-06
 Reference value :  4.25010e-06
 Reference value :  4.25011e-06
 Reference value :  4.25013e-06
 Reference value :  4.25017e-06
 Reference value :  4.25020e-06
 Reference value :  4.25020e-06
 Reference value :  4.25020e-06
 Reference value :  4.25021e-06
 Reference value :  4.25021e-06
 Reference value :  4.25022e-06
 Reference value :  4.25025e-06
 Reference value :  4.25030e-06
 Reference value :  4.25039e-06
 Reference value :  4.25059e-06
 Reference value :  4.25094e-06
 Reference value :  4.25136e-06
 Reference value :  4.25188e-06
 Reference value :  4.25249e-06
 Reference value :  4.25325e-06
 Reference value :  4.25413e-06
 Reference value :  4.25532e-06
 Reference value :  4.25622e-06
 Reference value :  4.25718e-06
 Reference value :  4.25824e-06
 Reference value :  4.25984e-06
 Reference value :  4.26128e-06
 Reference value :  4.26385e-06
 Reference value :  4.26680e-06
 Reference value :  4.27232e-06
 Reference value :  4.28335e-06
 Reference value :  4.30241e-06
 Reference value :  4.34052e-06
 Reference value :  4.41439e-06
 Reference value :  4.50000e-06
 Reference value :  4.50001e-06
 Reference value :  4.50003e-06
 Reference value :  4.50007e-06
 Reference value :  4.50010e-06
 Reference value :  4.50010e-06
 Reference value :  4.50011e-06
 Reference value :  4.50013e-06
 Reference value :  4.50016e-06
 Reference value :  4.50023e-06
 Reference value :  4.50036e-06
 Reference value :  4.50053e-06
 Reference value :  4.50087e-06
 Reference value :  4.50145e-06
 Reference value :  4.50221e-06
 Reference value :  4.50288e-06
 Reference value :  4.50356e-06
 Reference value :  4.50426e-06
 Reference value :  4.50524e-06
 Reference value :  4.50619e-06
 Reference value :  4.50715e-06
 Reference value :  4.50858e-06
 Reference value :  4.50997e-06
 Reference value :  4.51121e-06
 Reference value :  4.51250e-06
 Reference value :  4.51380e-06
 Reference value :  4.51533e-06
 Reference value :  4.51699e-06
 Reference value :  4.51873e-06
 Reference value :  4.52222e-06
 Reference value :  4.52919e-06
 Reference value :  4.54099e-06
 Reference value :  4.56458e-06
 Reference value :  4.60888e-06
 Reference value :  4.69176e-06
 Reference value :  4.75010e-06
 Reference value :  4.75011e-06
 Reference value :  4.75013e-06
 Reference value :  4.75017e-06
 Reference value :  4.75020e-06
 Reference value :  4.75020e-06
 Reference value :  4.75020e-06
 Reference value :  4.75021e-06
 Reference value :  4.75021e-06
 Reference value :  4.75022e-06
 Reference value :  4.75025e-06
 Reference value :  4.75030e-06
 Reference value :  4.75039e-06
 Reference value :  4.75059e-06
 Reference value :  4.75093e-06
 Reference value :  4.75136e-06
 Reference value :  4.75188e-06
 Reference value :  4.75249e-06
 Reference value :  4.75325e-06
 Reference value :  4.75413e-06
 Reference value :  4.75531e-06
 Reference value :  4.75623e-06
 Reference value :  4.75719e-06
 Reference value :  4.75822e-06
 Reference value :  4.75933e-06
 Reference value :  4.76056e-06
 Reference value :  4.76300e-06
 Reference value :  4.76567e-06
 Reference value :  4.77032e-06
 Reference value :  4.77885e-06
 Reference value :  4.79591e-06
 Reference value :  4.82938e-06
 Reference value :  4.89522e-06
 Reference value :  5.00000e-06
 Reference value :  5.00001e-06
 Reference value :  5.00003e-06
 Reference value :  5.00007e-06
 Reference value :  5.00010e-06
 Reference value :  5.00010e-06
 Reference value :  5.00011e-06
 Reference value :  5.00013e-06
 Reference value :  5.00016e-06
 Reference value :  5.00023e-06
 Reference value :  5.00036e-06
 Reference value :  5.00053e-06
 Reference value :  5.00087e-06
 Reference value :  5.00145e-06
 Reference value :  5.00221e-06
 Reference value :  5.00288e-06
 Reference value :  5.00356e-06
 Reference value :  5.00427e-06
 Reference value :  5.00525e-06
 Reference value :  5.00603e-06
 Reference value :  5.00686e-06
 Reference value :  5.00785e-06
 Reference value :  5.00873e-06
 Reference value :  5.00970e-06
 Reference value :  5.01067e-06
 Reference value :  5.01191e-06
 Reference value :  5.01363e-06
 Reference value :  5.01583e-06
 Reference value :  5.01810e-06
 Reference value :  5.02039e-06
 Reference value :  5.02206e-06
 Reference value :  5.02362e-06
 Reference value :  5.02524e-06
 Reference value :  5.02694e-06
 Reference value :  5.02898e-06
 Reference value :  5.03087e-06
 Reference value :  5.03363e-06
 Reference value :  5.03790e-06
 Reference value :  5.04396e-06
 Reference value :  5.05233e-06
 Reference value :  5.05772e-06
 Reference value :  5.06363e-06
 Reference value :  5.06956e-06
 Reference value :  5.07586e-06
 Reference value :  5.08197e-06
 Reference value :  5.08909e-06
 Reference value :  5.10246e-06
 Reference value :  5.11836e-06
 Reference value :  5.14492e-06
 Reference value :  5.18181e-06
 Reference value :  5.25010e-06
 Reference value :  5.25011e-06
 Reference value :  5.25013e-06
 Reference value :  5.25017e-06
 Reference value :  5.25020e-06
 Reference value :  5.25020e-06
 Reference value :  5.25020e-06
 Reference value :  5.25021e-06
 Reference value :  5.25021e-06
 Reference value :  5.25022e-06
 Reference value :  5.25025e-06
 Reference value :  5.25029e-06
 Reference value :  5.25039e-06
 Reference value :  5.25058e-06
 Reference value :  5.25092e-06
 Reference value :  5.25135e-06
 Reference value :  5.25187e-06
 Reference value :  5.25248e-06
 Reference value :  5.25324e-06
 Reference value :  5.25411e-06
 Reference value :  5.25525e-06
 Reference value :  5.25617e-06
 Reference value :  5.25713e-06
 Reference value :  5.25821e-06
 Reference value :  5.25978e-06
 Reference value :  5.26132e-06
 Reference value :  5.26379e-06
 Reference value :  5.26679e-06
 Reference value :  5.27216e-06
 Reference value :  5.28289e-06
 Reference value :  5.30174e-06
 Reference value :  5.33918e-06
 Reference value :  5.41047e-06
 Reference value :  5.50000e-06
 Reference value :  5.50001e-06
 Reference value :  5.50003e-06
 Reference value :  5.50007e-06
 Reference value :  5.50010e-06
 Reference value :  5.50010e-06
 Reference value :  5.50011e-06
 Reference value :  5.50013e-06
 Reference value :  5.50016e-06
 Reference value :  5.50023e-06
 Reference value :  5.50036e-06
 Reference value :  5.50053e-06
 Reference value :  5.50087e-06
 Reference value :  5.50145e-06
 Reference value :  5.50221e-06
 Reference value :  5.50284e-06
 Reference value :  5.50350e-06
 Reference value :  5.50419e-06
 Reference value :  5.50515e-06
 Reference value :  5.50612e-06
 Reference value :  5.50706e-06
 Reference value :  5.50855e-06
 Reference value :  5.50991e-06
 Reference value :  5.51119e-06
 Reference value :  5.51257e-06
 Reference value :  5.51385e-06
 Reference value :  5.51534e-06
 Reference value :  5.51686e-06
 Reference value :  5.51856e-06
 Reference value :  5.52197e-06
 Reference value :  5.52879e-06
 Reference value :  5.54035e-06
 Reference value :  5.56347e-06
 Reference value :  5.60697e-06
 Reference value :  5.69395e-06
 Reference value :  5.75010e-06
 Reference value :  5.75011e-06
 Reference value :  5.75013e-06
 Reference value :  5.75017e-06
 Reference value :  5.75020e-06
 Reference value :  5.75020e-06
 Reference value :  5.75020e-06
 Reference value :  5.75021e-06
 Reference value :  5.75021e-06
 Reference value :  5.75022e-06
 Reference value :  5.75025e-06
 Reference value :  5.75030e-06
 Reference value :  5.75039e-06
 Reference value :  5.75059e-06
 Reference value :  5.75094e-06
 Reference value :  5.75136e-06
 Reference value :  5.75188e-06
 Reference value :  5.75249e-06
 Reference value :  5.75326e-06
 Reference value :  5.75413e-06
 Reference value :  5.75531e-06
 Reference value :  5.75623e-06
 Reference value :  5.75720e-06
 Reference value :  5.75823e-06
 Reference value :  5.75934e-06
 Reference value :  5.76056e-06
 Reference value :  5.76184e-06
 Reference value :  5.76324e-06
 Reference value :  5.76536e-06
 Reference value :  5.76769e-06
 Reference value :  5.77129e-06
 Reference value :  5.77698e-06
 Reference value :  5.78836e-06
 Reference value :  5.81112e-06
 Reference value :  5.85616e-06
 Reference value :  5.94624e-06
 Reference value :  6.00000e-06
 Reference value :  6.00001e-06
 Reference value :  6.00003e-06
 Reference value :  6.00007e-06
 Reference value :  6.00010e-06
 Reference value :  6.00010e-06
 Reference value :  6.00011e-06
 Reference value :  6.00013e-06
 Reference value :  6.00016e-06
 Reference value :  6.00023e-06
 Reference value :  6.00036e-06
 Reference value :  6.00053e-06
 Reference value :  6.00087e-06
 Reference value :  6.00144e-06
 Reference value :  6.00221e-06
 Reference value :  6.00288e-06
 Reference value :  6.00356e-06
 Reference value :  6.00427e-06
 Reference value :  6.00514e-06
 Reference value :  6.00590e-06
 Reference value :  6.00673e-06
 Reference value :  6.00781e-06
 Reference value :  6.00879e-06
 Reference value :  6.00970e-06
 Reference value :  6.01079e-06
 Reference value :  6.01200e-06
 Reference value :  6.01369e-06
 Reference value :  6.01497e-06
 Reference value :  6.01634e-06
 Reference value :  6.01781e-06
 Reference value :  6.01941e-06
 Reference value :  6.02109e-06
 Reference value :  6.02219e-06
 Reference value :  6.02344e-06
 Reference value :  6.02464e-06
 Reference value :  6.02598e-06
 Reference value :  6.02744e-06
 Reference value :  6.02892e-06
 Reference value :  6.03104e-06
 Reference value :  6.03336e-06
 Reference value :  6.03739e-06
 Reference value :  6.04140e-06
 Reference value :  6.04528e-06
 Reference value :  6.05060e-06
 Reference value :  6.05523e-06
 Reference value :  6.06040e-06
 Reference value :  6.06522e-06
 Reference value :  6.07051e-06
 Reference value :  6.08013e-06
 Reference value :  6.09570e-06
 Reference value :  6.12065e-06
 Reference value :  6.14847e-06
 Reference value :  6.17210e-06
 Reference value :  6.19297e-06
 Reference value :  6.21452e-06
 Reference value :  6.23815e-06
 Reference value :  6.25010e-06
 Reference value :  6.25011e-06
 Reference value :  6.25013e-06
 Reference value :  6.25017e-06
 Reference value :  6.25020e-06
 Reference value :  6.25020e-06
 Reference value :  6.25020e-06
 Reference value :  6.25021e-06
 Reference value :  6.25021e-06
 Reference value :  6.25022e-06
 Reference value :  6.25025e-06
 Reference value :  6.25029e-06
 Reference value :  6.25039e-06
 Reference value :  6.25058e-06
 Reference value :  6.25092e-06
 Reference value :  6.25135e-06
 Reference value :  6.25187e-06
 Reference value :  6.25248e-06
 Reference value :  6.25324e-06
 Reference value :  6.25411e-06
 Reference value :  6.25525e-06
 Reference value :  6.25617e-06
 Reference value :  6.25713e-06
 Reference value :  6.25819e-06
 Reference value :  6.25977e-06
 Reference value :  6.26128e-06
 Reference value :  6.26377e-06
 Reference value :  6.26673e-06
 Reference value :  6.27210e-06
 Reference value :  6.28284e-06
 Reference value :  6.30163e-06
 Reference value :  6.33921e-06
 Reference value :  6.41034e-06
 Reference value :  6.50000e-06
 Reference value :  6.50001e-06
 Reference value :  6.50003e-06
 Reference value :  6.50007e-06
 Reference value :  6.50010e-06
 Reference value :  6.50010e-06
 Reference value :  6.50011e-06
 Reference value :  6.50013e-06
 Reference value :  6.50016e-06
 Reference value :  6.50023e-06
 Reference value :  6.50036e-06
 Reference value :  6.50053e-06
 Reference value :  6.50087e-06
 Reference value :  6.50145e-06
 Reference value :  6.50221e-06
 Reference value :  6.50284e-06
 Reference value :  6.50350e-06
 Reference value :  6.50419e-06
 Reference value :  6.50515e-06
 Reference value :  6.50611e-06
 Reference value :  6.50705e-06
 Reference value :  6.50853e-06
 Reference value :  6.50989e-06
 Reference value :  6.51126e-06
 Reference value :  6.51281e-06
 Reference value :  6.51420e-06
 Reference value :  6.51572e-06
 Reference value :  6.51723e-06
 Reference value :  6.51901e-06
 Reference value :  6.52257e-06
 Reference value :  6.52843e-06
 Reference value :  6.54014e-06
 Reference value :  6.56221e-06
 Reference value :  6.60308e-06
 Reference value :  6.68483e-06
 Reference value :  6.75010e-06
 Reference value :  6.75011e-06
 Reference value :  6.75013e-06
 Reference value :  6.75017e-06
 Reference value :  6.75020e-06
 Reference value :  6.75020e-06
 Reference value :  6.75020e-06
 Reference value :  6.75021e-06
 Reference value :  6.75021e-06
 Reference value :  6.75022e-06
 Reference value :  6.75025e-06
 Reference value :  6.75030e-06
 Reference value :  6.75039e-06
 Reference value :  6.75059e-06
 Reference value :  6.75094e-06
 Reference value :  6.75136e-06
 Reference value :  6.75188e-06
 Reference value :  6.75249e-06
 Reference value :  6.75326e-06
 Reference value :  6.75413e-06
 Reference value :  6.75531e-06
 Reference value :  6.75623e-06
 Reference value :  6.75720e-06
 Reference value :  6.75823e-06
 Reference value :  6.75934e-06
 Reference value :  6.76058e-06
 Reference value :  6.76186e-06
 Reference value :  6.76326e-06
 Reference value :  6.76539e-06
 Reference value :  6.76770e-06
 Reference value :  6.77134e-06
 Reference value :  6.77708e-06
 Reference value :  6.78855e-06
 Reference value :  6.81148e-06
 Reference value :  6.85649e-06
 Reference value :  6.94651e-06
 Reference value :  7.00000e-06
 Reference value :  7.00001e-06
 Reference value :  7.00003e-06
 Reference value :  7.00007e-06
 Reference value :  7.00010e-06
 Reference value :  7.00010e-06
 Reference value :  7.00011e-06
 Reference value :  7.00013e-06
 Reference value :  7.00016e-06
 Reference value :  7.00023e-06
 Reference value :  7.00036e-06
 Reference value :  7.00053e-06
 Reference value :  7.00087e-06
 Reference value :  7.00144e-06
 Reference value :  7.00221e-06
 Reference value :  7.00288e-06
 Reference value :  7.00356e-06
 Reference value :  7.00427e-06
 Reference value :  7.00513e-06
 Reference value :  7.00590e-06
 Reference value :  7.00672e-06
 Reference value :  7.00780e-06
 Reference value :  7.00878e-06
 Reference value :  7.00974e-06
 Reference value :  7.01079e-06
 Reference value :  7.01204e-06
 Reference value :  7.01385e-06
 Reference value :  7.01521e-06
 Reference value :  7.01667e-06
 Reference value :  7.01811e-06
 Reference value :  7.01977e-06
 Reference value :  7.02134e-06
 Reference value :  7.02245e-06
 Reference value :  7.02359e-06
 Reference value :  7.02475e-06
 Reference value :  7.02606e-06
 Reference value :  7.02745e-06
 Reference value :  7.02888e-06
 Reference value :  7.03093e-06
 Reference value :  7.03315e-06
 Reference value :  7.03670e-06
 Reference value :  7.04054e-06
 Reference value :  7.04385e-06
 Reference value :  7.04727e-06
 Reference value :  7.05135e-06
 Reference value :  7.05699e-06
 Reference value :  7.06685e-06
 Reference value :  7.08125e-06
 Reference value :  7.09602e-06
 Reference value :  7.11467e-06
 Reference value :  7.13862e-06
 Reference value :  7.18651e-06
 Reference value :  7.24797e-06
 Reference value :  7.25010e-06
 Reference value :  7.25011e-06
 Reference value :  7.25013e-06
 Reference value :  7.25017e-06
 Reference value :  7.25020e-06
 Reference value :  7.25020e-06
 Reference value :  7.25020e-06
 Reference value :  7.25021e-06
 Reference value :  7.25021e-06
 Reference value :  7.25022e-06
 Reference value :  7.25025e-06
 Reference value :  7.25030e-06
 Reference value :  7.25039e-06
 Reference value :  7.25059e-06
 Reference value :  7.25094e-06
 Reference value :  7.25136e-06
 Reference value :  7.25188e-06
 Reference value :  7.25249e-06
 Reference value :  7.25326e-06
 Reference value :  7.25414e-06
 Reference value :  7.25532e-06
 Reference value :  7.25624e-06
 Reference value :  7.25722e-06
 Reference value :  7.25830e-06
 Reference value :  7.25986e-06
 Reference value :  7.26139e-06
 Reference value :  7.26383e-06
 Reference value :  7.26695e-06
 Reference value :  7.27253e-06
 Reference value :  7.28370e-06
 Reference value :  7.30276e-06
 Reference value :  7.34075e-06
 Reference value :  7.41040e-06
 Reference value :  7.50000e-06
 Reference value :  7.50001e-06
 Reference value :  7.50003e-06
 Reference value :  7.50007e-06
 Reference value :  7.50010e-06
 Reference value :  7.50010e-06
 Reference value :  7.50011e-06
 Reference value :  7.50013e-06
 Reference value :  7.50016e-06
 Reference value :  7.50023e-06
 Reference value :  7.50036e-06
 Reference value :  7.50053e-06
 Reference value :  7.50087e-06
 Reference value :  7.50150e-06
 Reference value :  7.50218e-06
 Reference value :  7.50280e-06
 Reference value :  7.50345e-06
 Reference value :  7.50413e-06
 Reference value :  7.50512e-06
 Reference value :  7.50600e-06
 Reference value :  7.50701e-06
 Reference value :  7.50826e-06
 Reference value :  7.50973e-06
 Reference value :  7.51115e-06
 Reference value :  7.51283e-06
 Reference value :  7.51438e-06
 Reference value :  7.51607e-06
 Reference value :  7.51780e-06
 Reference value :  7.51969e-06
 Reference value :  7.52348e-06
 Reference value :  7.52973e-06
 Reference value :  7.54044e-06
 Reference value :  7.56145e-06
 Reference value :  7.59994e-06
 Reference value :  7.67175e-06
 Reference value :  7.75010e-06
 Reference value :  7.75011e-06
 Reference value :  7.75013e-06
 Reference value :  7.75017e-06
 Reference value :  7.75020e-06
 Reference value :  7.75020e-06
 Reference value :  7.75020e-06
 Reference value :  7.75021e-06
 Reference value :  7.75021e-06
 Reference value :  7.75022e-06
 Reference value :  7.75025e-06
 Reference value :  7.75030e-06
 Reference value :  7.75039e-06
 Reference value :  7.75059e-06
 Reference value :  7.75094e-06
 Reference value :  7.75136e-06
 Reference value :  7.75188e-06
 Reference value :  7.75249e-06
 Reference value :  7.75326e-06
 Reference value :  7.75414e-06
 Reference value :  7.75529e-06
 Reference value :  7.75625e-06
 Reference value :  7.75724e-06
 Reference value :  7.75825e-06
 Reference value :  7.75939e-06
 Reference value :  7.76064e-06
 Reference value :  7.76304e-06
 Reference value :  7.76583e-06
 Reference value :  7.77059e-06
 Reference value :  7.77689e-06
 Reference value :  7.78718e-06
 Reference value :  7.80777e-06
 Reference value :  7.84886e-06
 Reference value :  7.93025e-06
 Reference value :  8.00000e-06
 Reference value :  8.00001e-06
 Reference value :  8.00003e-06
 Reference value :  8.00007e-06
 Reference value :  8.00010e-06
 Reference value :  8.00010e-06
 Reference value :  8.00011e-06
 Reference value :  8.00013e-06
 Reference value :  8.00016e-06
 Reference value :  8.00023e-06
 Reference value :  8.00036e-06
 Reference value :  8.00053e-06
 Reference value :  8.00087e-06
 Reference value :  8.00149e-06
 Reference value :  8.00218e-06
 Reference value :  8.00280e-06
 Reference value :  8.00345e-06
 Reference value :  8.00413e-06
 Reference value :  8.00499e-06
 Reference value :  8.00588e-06
 Reference value :  8.00669e-06
 Reference value :  8.00784e-06
 Reference value :  8.00890e-06
 Reference value :  8.00986e-06
 Reference value :  8.01097e-06
 Reference value :  8.01224e-06
 Reference value :  8.01410e-06
 Reference value :  8.01642e-06
 Reference value :  8.01888e-06
 Reference value :  8.02167e-06
 Reference value :  8.02428e-06
 Reference value :  8.02731e-06
 Reference value :  8.03338e-06
 Reference value :  8.04283e-06
 Reference value :  8.06072e-06
 Reference value :  8.09575e-06
 Reference value :  8.16582e-06
 Reference value :  8.25010e-06
 Reference value :  8.25011e-06
 Reference value :  8.25013e-06
 Reference value :  8.25017e-06
 Reference value :  8.25020e-06
 Reference value :  8.25020e-06
 Reference value :  8.25020e-06
 Reference value :  8.25021e-06
 Reference value :  8.25021e-06
 Reference value :  8.25022e-06
 Reference value :  8.25025e-06
 Reference value :  8.25030e-06
 Reference value :  8.25039e-06
 Reference value :  8.25059e-06
 Reference value :  8.25098e-06
 Reference value :  8.25139e-06
 Reference value :  8.25189e-06
 Reference value :  8.25250e-06
 Reference value :  8.25330e-06
 Reference value :  8.25418e-06
 Reference value :  8.25526e-06
 Reference value :  8.25645e-06
 Reference value :  8.25784e-06
 Reference value :  8.25942e-06
 Reference value :  8.26126e-06
 Reference value :  8.26400e-06
 Reference value :  8.26674e-06
 Reference value :  8.27190e-06
 Reference value :  8.28222e-06
 Reference value :  8.29893e-06
 Reference value :  8.33228e-06
 Reference value :  8.39112e-06
 Reference value :  8.50000e-06
 Reference value :  8.50000e-06
 Reference value :  8.50000e-06
 Reference value :  8.50000e-06
 Reference value :  8.50000e-06
 Reference value :  8.50000e-06
 Reference value :  8.50000e-06
 Reference value :  8.50000e-06
 Reference value :  8.50000e-06
 Reference value :  8.50001e-06
 Reference value :  8.50001e-06
 Reference value :  8.50002e-06
 Reference value :  8.50004e-06
 Reference value :  8.50008e-06
 Reference value :  8.50010e-06
 Reference value :  8.50010e-06
 Reference value :  8.50011e-06
 Reference value :  8.50012e-06
 Reference value :  8.50014e-06
 Reference value :  8.50018e-06
 Reference value :  8.50026e-06
 Reference value :  8.50043e-06
 Reference value :  8.50077e-06
 Reference value :  8.50124e-06
 Reference value :  8.50211e-06
 Reference value :  8.50295e-06
 Reference value :  8.50360e-06
 Reference value :  8.50440e-06
 Reference value :  8.50523e-06
 Reference value :  8.50622e-06
 Reference value :  8.50737e-06
 Reference value :  8.50865e-06
 Reference value :  8.51072e-06
 Reference value :  8.51234e-06
 Reference value :  8.51406e-06
 Reference value :  8.51588e-06
 Reference value :  8.51780e-06
 Reference value :  8.52005e-06
 Reference value :  8.52272e-06
 Reference value :  8.52806e-06
 Reference value :  8.53293e-06
 Reference value :  8.53669e-06
 Reference value :  8.54010e-06
 Reference value :  8.54293e-06
 Reference value :  8.54545e-06
 Reference value :  8.54752e-06
 Reference value :  8.54959e-06
 Reference value :  8.55108e-06
 Reference value :  8.55258e-06
 Reference value :  8.55405e-06
 Reference value :  8.55577e-06
 Reference value :  8.55847e-06
 Reference value :  8.56159e-06
 Reference value :  8.56685e-06
 Reference value :  8.57531e-06
 Reference value :  8.58428e-06
 Reference value :  8.59437e-06
 Reference value :  8.60546e-06
 Reference value :  8.62185e-06
 Reference value :  8.63855e-06
 Reference value :  8.65943e-06
 Reference value :  8.68024e-06
 Reference value :  8.71139e-06
 Reference value :  8.75010e-06
 Reference value :  8.75011e-06
 Reference value :  8.75013e-06
 Reference value :  8.75017e-06
 Reference value :  8.75020e-06
 Reference value :  8.75020e-06
 Reference value :  8.75020e-06
 Reference value :  8.75021e-06
 Reference value :  8.75021e-06
 Reference value :  8.75022e-06
 Reference value :  8.75025e-06
 Reference value :  8.75030e-06
 Reference value :  8.75039e-06
 Reference value :  8.75059e-06
 Reference value :  8.75098e-06
 Reference value :  8.75138e-06
 Reference value :  8.75191e-06
 Reference value :  8.75252e-06
 Reference value :  8.75332e-06
 Reference value :  8.75421e-06
 Reference value :  8.75542e-06
 Reference value :  8.75639e-06
 Reference value :  8.75740e-06
 Reference value :  8.75850e-06
 Reference value :  8.76008e-06
 Reference value :  8.76171e-06
 Reference value :  8.76409e-06
 Reference value :  8.76755e-06
 Reference value :  8.77389e-06
 Reference value :  8.78609e-06
 Reference value :  8.80655e-06
 Reference value :  8.84658e-06
 Reference value :  8.91781e-06
 Reference value :  9.00000e-06
 Reference value :  9.00001e-06
 Reference value :  9.00003e-06
 Reference value :  9.00007e-06
 Reference value :  9.00010e-06
 Reference value :  9.00010e-06
 Reference value :  9.00011e-06
 Reference value :  9.00013e-06
 Reference value :  9.00016e-06
 Reference value :  9.00023e-06
 Reference value :  9.00036e-06
 Reference value :  9.00054e-06
 Reference value :  9.00089e-06
 Reference value :  9.00151e-06
 Reference value :  9.00220e-06
 Reference value :  9.00282e-06
 Reference value :  9.00350e-06
 Reference value :  9.00421e-06
 Reference value :  9.00519e-06
 Reference value :  9.00613e-06
 Reference value :  9.00711e-06
 Reference value :  9.00846e-06
 Reference value :  9.00985e-06
 Reference value :  9.01176e-06
 Reference value :  9.01407e-06
 Reference value :  9.01592e-06
 Reference value :  9.01789e-06
 Reference value :  9.01996e-06
 Reference value :  9.02233e-06
 Reference value :  9.02497e-06
 Reference value :  9.02774e-06
 Reference value :  9.03283e-06
 Reference value :  9.04127e-06
 Reference value :  9.05098e-06
 Reference value :  9.07040e-06
 Reference value :  9.10924e-06
 Reference value :  9.17387e-06
 Reference value :  9.25010e-06
 Reference value :  9.25011e-06
 Reference value :  9.25013e-06
 Reference value :  9.25017e-06
 Reference value :  9.25020e-06
 Reference value :  9.25020e-06
 Reference value :  9.25020e-06
 Reference value :  9.25021e-06
 Reference value :  9.25021e-06
 Reference value :  9.25022e-06
 Reference value :  9.25025e-06
 Reference value :  9.25030e-06
 Reference value :  9.25039e-06
 Reference value :  9.25059e-06
 Reference value :  9.25098e-06
 Reference value :  9.25139e-06
 Reference value :  9.25191e-06
 Reference value :  9.25252e-06
 Reference value :  9.25332e-06
 Reference value :  9.25422e-06
 Reference value :  9.25541e-06
 Reference value :  9.25650e-06
 Reference value :  9.25751e-06
 Reference value :  9.25859e-06
 Reference value :  9.25983e-06
 Reference value :  9.26116e-06
 Reference value :  9.26359e-06
 Reference value :  9.26677e-06
 Reference value :  9.27237e-06
 Reference value :  9.28356e-06
 Reference value :  9.30272e-06
 Reference value :  9.34005e-06
 Reference value :  9.40840e-06
 Reference value :  9.50000e-06
 Reference value :  9.50001e-06
 Reference value :  9.50003e-06
 Reference value :  9.50007e-06
 Reference value :  9.50010e-06
 Reference value :  9.50010e-06
 Reference value :  9.50011e-06
 Reference value :  9.50013e-06
 Reference value :  9.50016e-06
 Reference value :  9.50023e-06
 Reference value :  9.50036e-06
 Reference value :  9.50054e-06
 Reference value :  9.50089e-06
 Reference value :  9.50151e-06
 Reference value :  9.50220e-06
 Reference value :  9.50282e-06
 Reference value :  9.50346e-06
 Reference value :  9.50415e-06
 Reference value :  9.50499e-06
 Reference value :  9.50587e-06
 Reference value :  9.50671e-06
 Reference value :  9.50777e-06
 Reference value :  9.50887e-06
 Reference value :  9.50996e-06
 Reference value :  9.51099e-06
 Reference value :  9.51243e-06
 Reference value :  9.51411e-06
 Reference value :  9.51683e-06
 Reference value :  9.51884e-06
 Reference value :  9.52100e-06
 Reference value :  9.52261e-06
 Reference value :  9.52414e-06
 Reference value :  9.52559e-06
 Reference value :  9.52715e-06
 Reference value :  9.52888e-06
 Reference value :  9.53114e-06
 Reference value :  9.53350e-06
 Reference value :  9.53812e-06
 Reference value :  9.54450e-06
 Reference value :  9.55564e-06
 Reference value :  9.57378e-06
 Reference value :  9.59948e-06
 Reference value :  9.63892e-06
 Reference value :  9.71678e-06
 Reference value :  9.75010e-06
 Reference value :  9.75011e-06
 Reference value :  9.75013e-06
 Reference value :  9.75017e-06
 Reference value :  9.75020e-06
 Reference value :  9.75020e-06
 Reference value :  9.75020e-06
 Reference value :  9.75021e-06
 Reference value :  9.75021e-06
 Reference value :  9.75022e-06
 Reference value :  9.75025e-06
 Reference value :  9.75029e-06
 Reference value :  9.75039e-06
 Reference value :  9.75058e-06
 Reference value :  9.75092e-06
 Reference value :  9.75135e-06
 Reference value :  9.75187e-06
 Reference value :  9.75248e-06
 Reference value :  9.75324e-06
 Reference value :  9.75412e-06
 Reference value :  9.75531e-06
 Reference value :  9.75621e-06
 Reference value :  9.75716e-06
 Reference value :  9.75825e-06
 Reference value :  9.75980e-06
 Reference value :  9.76125e-06
 Reference value :  9.76377e-06
 Reference value :  9.76675e-06
 Reference value :  9.77225e-06
 Reference value :  9.78325e-06
 Reference value :  9.80228e-06
 Reference value :  9.84034e-06
 Reference value :  9.91128e-06
 Reference value :  1.00000e-05
 Reference value :  1.00000e-05
 Reference value :  1.00000e-05
 Reference value :  1.00001e-05
 Reference value :  1.00001e-05
 Reference value :  1.00001e-05
 Reference value :  1.00001e-05
 Reference value :  1.00001e-05
 Reference value :  1.00002e-05
 Reference value :  1.00002e-05
 Reference value :  1.00004e-05
 Reference value :  1.00005e-05
 Reference value :  1.00009e-05
 Reference value :  1.00014e-05
 Reference value :  1.00022e-05
 Reference value :  1.00029e-05
 Reference value :  1.00036e-05
 Reference value :  1.00043e-05
 Reference value :  1.00052e-05
 Reference value :  1.00062e-05
 Reference value :  1.00072e-05
 Reference value :  1.00086e-05
 Reference value :  1.00100e-05
 Reference value :  1.00113e-05
 Reference value :  1.00127e-05
 Reference value :  1.00142e-05
 Reference value :  1.00159e-05
 Reference value :  1.00174e-05
 Reference value :  1.00195e-05
 Reference value :  1.00216e-05
 Reference value :  1.00254e-05
 Reference value :  1.00312e-05
 Reference value :  1.00412e-05
 Reference value :  1.00596e-05
 Reference value :  1.00920e-05
 Reference value :  1.01534e-05
 Reference value :  1.02501e-05
 Reference value :  1.02501e-05
 Reference value :  1.02501e-05
 Reference value :  1.02502e-05
 Reference value :  1.02502e-05
 Reference value :  1.02502e-05
 Reference value :  1.02502e-05
 Reference value :  1.02502e-05
 Reference value :  1.02502e-05
 Reference value :  1.02502e-05
 Reference value :  1.02502e-05
 Reference value :  1.02503e-05
 Reference value :  1.02504e-05
 Reference value :  1.02506e-05
 Reference value :  1.02509e-05
 Reference value :  1.02513e-05
 Reference value :  1.02519e-05
 Reference value :  1.02525e-05
 Reference value :  1.02532e-05
 Reference value :  1.02541e-05
 Reference value :  1.02553e-05
 Reference value :  1.02562e-05
 Reference value :  1.02571e-05
 Reference value :  1.02582e-05
 Reference value :  1.02593e-05
 Reference value :  1.02605e-05
 Reference value :  1.02629e-05
 Reference value :  1.02656e-05
 Reference value :  1.02702e-05
 Reference value :  1.02785e-05
 Reference value :  1.02951e-05
 Reference value :  1.03283e-05
 Reference value :  1.03930e-05
 Reference value :  1.05000e-05
 Reference value :  1.05000e-05
 Reference value :  1.05000e-05
 Reference value :  1.05001e-05
 Reference value :  1.05001e-05
 Reference value :  1.05001e-05
 Reference value :  1.05001e-05
 Reference value :  1.05001e-05
 Reference value :  1.05002e-05
 Reference value :  1.05002e-05
 Reference value :  1.05004e-05
 Reference value :  1.05005e-05
 Reference value :  1.05009e-05
 Reference value :  1.05014e-05
 Reference value :  1.05022e-05
 Reference value :  1.05029e-05
 Reference value :  1.05036e-05
 Reference value :  1.05043e-05
 Reference value :  1.05053e-05
 Reference value :  1.05060e-05
 Reference value :  1.05069e-05
 Reference value :  1.05078e-05
 Reference value :  1.05089e-05
 Reference value :  1.05099e-05
 Reference value :  1.05110e-05
 Reference value :  1.05124e-05
 Reference value :  1.05140e-05
 Reference value :  1.05163e-05
 Reference value :  1.05185e-05
 Reference value :  1.05205e-05
 Reference value :  1.05222e-05
 Reference value :  1.05237e-05
 Reference value :  1.05253e-05
 Reference value :  1.05270e-05
 Reference value :  1.05290e-05
 Reference value :  1.05309e-05
 Reference value :  1.05335e-05
 Reference value :  1.05380e-05
 Reference value :  1.05455e-05
 Reference value :  1.05597e-05
 Reference value :  1.05814e-05
 Reference value :  1.06227e-05
 Reference value :  1.06745e-05
 Reference value :  1.07370e-05
 Reference value :  1.07501e-05
 Reference value :  1.07501e-05
 Reference value :  1.07501e-05
 Reference value :  1.07502e-05
 Reference value :  1.07502e-05
 Reference value :  1.07502e-05
 Reference value :  1.07502e-05
 Reference value :  1.07502e-05
 Reference value :  1.07502e-05
 Reference value :  1.07502e-05
 Reference value :  1.07502e-05
 Reference value :  1.07503e-05
 Reference value :  1.07504e-05
 Reference value :  1.07506e-05
 Reference value :  1.07509e-05
 Reference value :  1.07513e-05
 Reference value :  1.07519e-05
 Reference value :  1.07525e-05
 Reference value :  1.07532e-05
 Reference value :  1.07541e-05
 Reference value :  1.07553e-05
 Reference value :  1.07562e-05
 Reference value :  1.07571e-05
 Reference value :  1.07582e-05
 Reference value :  1.07598e-05
 Reference value :  1.07612e-05
 Reference value :  1.07638e-05
 Reference value :  1.07667e-05
 Reference value :  1.07722e-05
 Reference value :  1.07832e-05
 Reference value :  1.08022e-05
 Reference value :  1.08402e-05
 Reference value :  1.09116e-05
 Reference value :  1.10000e-05
 Reference value :  1.10000e-05
 Reference value :  1.10000e-05
 Reference value :  1.10001e-05
 Reference value :  1.10001e-05
 Reference value :  1.10001e-05
 Reference value :  1.10001e-05
 Reference value :  1.10001e-05
 Reference value :  1.10002e-05
 Reference value :  1.10002e-05
 Reference value :  1.10004e-05
 Reference value :  1.10005e-05
 Reference value :  1.10009e-05
 Reference value :  1.10014e-05
 Reference value :  1.10022e-05
 Reference value :  1.10029e-05
 Reference value :  1.10036e-05
 Reference value :  1.10043e-05
 Reference value :  1.10052e-05
 Reference value :  1.10062e-05
 Reference value :  1.10072e-05
 Reference value :  1.10086e-05
 Reference value :  1.10100e-05
 Reference value :  1.10113e-05
 Reference value :  1.10127e-05
 Reference value :  1.10142e-05
 Reference value :  1.10159e-05
 Reference value :  1.10174e-05
 Reference value :  1.10196e-05
 Reference value :  1.10219e-05
 Reference value :  1.10260e-05
 Reference value :  1.10322e-05
 Reference value :  1.10430e-05
 Reference value :  1.10631e-05
 Reference value :  1.10983e-05
 Reference value :  1.11653e-05
 Reference value :  1.12501e-05
 Reference value :  1.12501e-05
 Reference value :  1.12501e-05
 Reference value :  1.12502e-05
 Reference value :  1.12502e-05
 Reference value :  1.12502e-05
 Reference value :  1.12502e-05
 Reference value :  1.12502e-05
 Reference value :  1.12502e-05
 Reference value :  1.12502e-05
 Reference value :  1.12502e-05
 Reference value :  1.12503e-05
 Reference value :  1.12504e-05
 Reference value :  1.12506e-05
 Reference value :  1.12509e-05
 Reference value :  1.12513e-05
 Reference value :  1.12519e-05
 Reference value :  1.12525e-05
 Reference value :  1.12532e-05
 Reference value :  1.12541e-05
 Reference value :  1.12553e-05
 Reference value :  1.12562e-05
 Reference value :  1.12571e-05
 Reference value :  1.12582e-05
 Reference value :  1.12593e-05
 Reference value :  1.12605e-05
 Reference value :  1.12629e-05
 Reference value :  1.12656e-05
 Reference value :  1.12702e-05
 Reference value :  1.12785e-05
 Reference value :  1.12950e-05
 Reference value :  1.13282e-05
 Reference value :  1.13925e-05
 Reference value :  1.15000e-05
 Reference value :  1.15000e-05
 Reference value :  1.15000e-05
 Reference value :  1.15001e-05
 Reference value :  1.15001e-05
 Reference value :  1.15001e-05
 Reference value :  1.15001e-05
 Reference value :  1.15001e-05
 Reference value :  1.15002e-05
 Reference value :  1.15002e-05
 Reference value :  1.15004e-05
 Reference value :  1.15005e-05
 Reference value :  1.15009e-05
 Reference value :  1.15014e-05
 Reference value :  1.15022e-05
 Reference value :  1.15029e-05
 Reference value :  1.15036e-05
 Reference value :  1.15043e-05
 Reference value :  1.15052e-05
 Reference value :  1.15060e-05
 Reference value :  1.15069e-05
 Reference value :  1.15078e-05
 Reference value :  1.15089e-05
 Reference value :  1.15100e-05
 Reference value :  1.15110e-05
 Reference value :  1.15125e-05
 Reference value :  1.15141e-05
 Reference value :  1.15167e-05
 Reference value :  1.15187e-05
 Reference value :  1.15208e-05
 Reference value :  1.15221e-05
 Reference value :  1.15235e-05
 Reference value :  1.15248e-05
 Reference value :  1.15263e-05
 Reference value :  1.15281e-05
 Reference value :  1.15299e-05
 Reference value :  1.15326e-05
 Reference value :  1.15357e-05
 Reference value :  1.15419e-05
 Reference value :  1.15476e-05
 Reference value :  1.15542e-05
 Reference value :  1.15590e-05
 Reference value :  1.15640e-05
 Reference value :  1.15684e-05
 Reference value :  1.15739e-05
 Reference value :  1.15810e-05
 Reference value :  1.15870e-05
 Reference value :  1.15941e-05
 Reference value :  1.16047e-05
 Reference value :  1.16214e-05
 Reference value :  1.16447e-05
 Reference value :  1.16824e-05
 Reference value :  1.17233e-05
 Reference value :  1.17501e-05
 Reference value :  1.17501e-05
 Reference value :  1.17501e-05
 Reference value :  1.17502e-05
 Reference value :  1.17502e-05
 Reference value :  1.17502e-05
 Reference value :  1.17502e-05
 Reference value :  1.17502e-05
 Reference value :  1.17502e-05
 Reference value :  1.17502e-05
 Reference value :  1.17502e-05
 Reference value :  1.17503e-05
 Reference value :  1.17504e-05
 Reference value :  1.17506e-05
 Reference value :  1.17509e-05
 Reference value :  1.17514e-05
 Reference value :  1.17519e-05
 Reference value :  1.17525e-05
 Reference value :  1.17533e-05
 Reference value :  1.17541e-05
 Reference value :  1.17553e-05
 Reference value :  1.17562e-05
 Reference value :  1.17572e-05
 Reference value :  1.17583e-05
 Reference value :  1.17598e-05
 Reference value :  1.17614e-05
 Reference value :  1.17638e-05
 Reference value :  1.17670e-05
 Reference value :  1.17725e-05
 Reference value :  1.17834e-05
 Reference value :  1.18023e-05
 Reference value :  1.18393e-05
 Reference value :  1.19109e-05
 Reference value :  1.20000e-05
 Reference value :  1.20000e-05
 Reference value :  1.20000e-05
 Reference value :  1.20001e-05
 Reference value :  1.20001e-05
 Reference value :  1.20001e-05
 Reference value :  1.20001e-05
 Reference value :  1.20001e-05
 Reference value :  1.20002e-05
 Reference value :  1.20002e-05
 Reference value :  1.20004e-05
 Reference value :  1.20005e-05
 Reference value :  1.20009e-05
 Reference value :  1.20014e-05
 Reference value :  1.20022e-05
 Reference value :  1.20028e-05
 Reference value :  1.20035e-05
 Reference value :  1.20042e-05
 Reference value :  1.20051e-05
 Reference value :  1.20061e-05
 Reference value :  1.20071e-05
 Reference value :  1.20085e-05
 Reference value :  1.20099e-05
 Reference value :  1.20113e-05
 Reference value :  1.20128e-05
 Reference value :  1.20144e-05
 Reference value :  1.20161e-05
 Reference value :  1.20179e-05
 Reference value :  1.20198e-05
 Reference value :  1.20237e-05
 Reference value :  1.20312e-05
 Reference value :  1.20434e-05
 Reference value :  1.20679e-05
 Reference value :  1.21133e-05
 Reference value :  1.22042e-05
 Reference value :  1.22501e-05
 Reference value :  1.22501e-05
 Reference value :  1.22501e-05
 Reference value :  1.22502e-05
 Reference value :  1.22502e-05
 Reference value :  1.22502e-05
 Reference value :  1.22502e-05
 Reference value :  1.22502e-05
 Reference value :  1.22502e-05
 Reference value :  1.22502e-05
 Reference value :  1.22502e-05
 Reference value :  1.22503e-05
 Reference value :  1.22504e-05
 Reference value :  1.22506e-05
 Reference value :  1.22509e-05
 Reference value :  1.22514e-05
 Reference value :  1.22519e-05
 Reference value :  1.22525e-05
 Reference value :  1.22533e-05
 Reference value :  1.22541e-05
 Reference value :  1.22553e-05
 Reference value :  1.22562e-05
 Reference value :  1.22572e-05
 Reference value :  1.22582e-05
 Reference value :  1.22593e-05
 Reference value :  1.22606e-05
 Reference value :  1.22618e-05
 Reference value :  1.22632e-05
 Reference value :  1.22654e-05
 Reference value :  1.22677e-05
 Reference value :  1.22713e-05
 Reference value :  1.22770e-05
 Reference value :  1.22883e-05
 Reference value :  1.23110e-05
 Reference value :  1.23565e-05
 Reference value :  1.24474e-05
 Reference value :  1.25000e-05
 Reference value :  1.25000e-05
 Reference value :  1.25000e-05
 Reference value :  1.25001e-05
 Reference value :  1.25001e-05
 Reference value :  1.25001e-05
 Reference value :  1.25001e-05
 Reference value :  1.25001e-05
 Reference value :  1.25002e-05
 Reference value :  1.25002e-05
 Reference value :  1.25004e-05
 Reference value :  1.25005e-05
 Reference value :  1.25009e-05
 Reference value :  1.25014e-05
 Reference value :  1.25022e-05
 Reference value :  1.25029e-05
 Reference value :  1.25036e-05
 Reference value :  1.25043e-05
 Reference value :  1.25051e-05
 Reference value :  1.25059e-05
 Reference value :  1.25067e-05
 Reference value :  1.25078e-05
 Reference value :  1.25088e-05
 Reference value :  1.25097e-05
 Reference value :  1.25108e-05
 Reference value :  1.25121e-05
 Reference value :  1.25137e-05
 Reference value :  1.25149e-05
 Reference value :  1.25163e-05
 Reference value :  1.25177e-05
 Reference value :  1.25193e-05
 Reference value :  1.25210e-05
 Reference value :  1.25226e-05
 Reference value :  1.25241e-05
 Reference value :  1.25256e-05
 Reference value :  1.25272e-05
 Reference value :  1.25290e-05
 Reference value :  1.25312e-05
 Reference value :  1.25336e-05
 Reference value :  1.25382e-05
 Reference value :  1.25433e-05
 Reference value :  1.25483e-05
 Reference value :  1.25520e-05
 Reference value :  1.25549e-05
 Reference value :  1.25575e-05
 Reference value :  1.25603e-05
 Reference value :  1.25636e-05
 Reference value :  1.25684e-05
 Reference value :  1.25748e-05
 Reference value :  1.25847e-05
 Reference value :  1.25998e-05
 Reference value :  1.26201e-05
 Reference value :  1.26424e-05
 Reference value :  1.26680e-05
 Reference value :  1.26957e-05
 Reference value :  1.27410e-05
 Reference value :  1.27501e-05
 Reference value :  1.27501e-05
 Reference value :  1.27501e-05
 Reference value :  1.27502e-05
 Reference value :  1.27502e-05
 Reference value :  1.27502e-05
 Reference value :  1.27502e-05
 Reference value :  1.27502e-05
 Reference value :  1.27502e-05
 Reference value :  1.27502e-05
 Reference value :  1.27502e-05
 Reference value :  1.27503e-05
 Reference value :  1.27504e-05
 Reference value :  1.27506e-05
 Reference value :  1.27509e-05
 Reference value :  1.27513e-05
 Reference value :  1.27519e-05
 Reference value :  1.27525e-05
 Reference value :  1.27532e-05
 Reference value :  1.27541e-05
 Reference value :  1.27553e-05
 Reference value :  1.27562e-05
 Reference value :  1.27571e-05
 Reference value :  1.27582e-05
 Reference value :  1.27596e-05
 Reference value :  1.27610e-05
 Reference value :  1.27635e-05
 Reference value :  1.27663e-05
 Reference value :  1.27713e-05
 Reference value :  1.27812e-05
 Reference value :  1.27997e-05
 Reference value :  1.28355e-05
 Reference value :  1.29063e-05
 Reference value :  1.30000e-05
 Reference value :  1.30000e-05
 Reference value :  1.30000e-05
 Reference value :  1.30001e-05
 Reference value :  1.30001e-05
 Reference value :  1.30001e-05
 Reference value :  1.30001e-05
 Reference value :  1.30001e-05
 Reference value :  1.30002e-05
 Reference value :  1.30002e-05
 Reference value :  1.30004e-05
 Reference value :  1.30005e-05
 Reference value :  1.30009e-05
 Reference value :  1.30014e-05
 Reference value :  1.30022e-05
 Reference value :  1.30029e-05
 Reference value :  1.30036e-05
 Reference value :  1.30043e-05
 Reference value :  1.30052e-05
 Reference value :  1.30062e-05
 Reference value :  1.30071e-05
 Reference value :  1.30086e-05
 Reference value :  1.30100e-05
 Reference value :  1.30112e-05
 Reference value :  1.30125e-05
 Reference value :  1.30138e-05
 Reference value :  1.30153e-05
 Reference value :  1.30170e-05
 Reference value :  1.30187e-05
 Reference value :  1.30222e-05
 Reference value :  1.30292e-05
 Reference value :  1.30409e-05
 Reference value :  1.30645e-05
 Reference value :  1.31087e-05
 Reference value :  1.31913e-05
 Reference value :  1.32501e-05
 Reference value :  1.32501e-05
 Reference value :  1.32501e-05
 Reference value :  1.32502e-05
 Reference value :  1.32502e-05
 Reference value :  1.32502e-05
 Reference value :  1.32502e-05
 Reference value :  1.32502e-05
 Reference value :  1.32502e-05
 Reference value :  1.32502e-05
 Reference value :  1.32502e-05
 Reference value :  1.32503e-05
 Reference value :  1.32504e-05
 Reference value :  1.32506e-05
 Reference value :  1.32509e-05
 Reference value :  1.32514e-05
 Reference value :  1.32519e-05
 Reference value :  1.32525e-05
 Reference value :  1.32533e-05
 Reference value :  1.32541e-05
 Reference value :  1.32553e-05
 Reference value :  1.32562e-05
 Reference value :  1.32572e-05
 Reference value :  1.32582e-05
 Reference value :  1.32593e-05
 Reference value :  1.32606e-05
 Reference value :  1.32630e-05
 Reference value :  1.32657e-05
 Reference value :  1.32703e-05
 Reference value :  1.32788e-05
 Reference value :  1.32959e-05
 Reference value :  1.33290e-05
 Reference value :  1.33948e-05
 Reference value :  1.35000e-05
 Reference value :  1.35000e-05
 Reference value :  1.35000e-05
 Reference value :  1.35001e-05
 Reference value :  1.35001e-05
 Reference value :  1.35001e-05
 Reference value :  1.35001e-05
 Reference value :  1.35001e-05
 Reference value :  1.35002e-05
 Reference value :  1.35002e-05
 Reference value :  1.35004e-05
 Reference value :  1.35005e-05
 Reference value :  1.35009e-05
 Reference value :  1.35014e-05
 Reference value :  1.35022e-05
 Reference value :  1.35029e-05
 Reference value :  1.35036e-05
 Reference value :  1.35043e-05
 Reference value :  1.35053e-05
 Reference value :  1.35060e-05
 Reference value :  1.35069e-05
 Reference value :  1.35079e-05
 Reference value :  1.35087e-05
 Reference value :  1.35097e-05
 Reference value :  1.35107e-05
 Reference value :  1.35119e-05
 Reference value :  1.35136e-05
 Reference value :  1.35158e-05
 Reference value :  1.35181e-05
 Reference value :  1.35204e-05
 Reference value :  1.35221e-05
 Reference value :  1.35236e-05
 Reference value :  1.35252e-05
 Reference value :  1.35269e-05
 Reference value :  1.35290e-05
 Reference value :  1.35309e-05
 Reference value :  1.35337e-05
 Reference value :  1.35380e-05
 Reference value :  1.35441e-05
 Reference value :  1.35520e-05
 Reference value :  1.35571e-05
 Reference value :  1.35627e-05
 Reference value :  1.35690e-05
 Reference value :  1.35751e-05
 Reference value :  1.35813e-05
 Reference value :  1.35884e-05
 Reference value :  1.35998e-05
 Reference value :  1.36152e-05
 Reference value :  1.36377e-05
 Reference value :  1.36733e-05
 Reference value :  1.37293e-05
 Reference value :  1.37501e-05
 Reference value :  1.37501e-05
 Reference value :  1.37501e-05
 Reference value :  1.37502e-05
 Reference value :  1.37502e-05
 Reference value :  1.37502e-05
 Reference value :  1.37502e-05
 Reference value :  1.37502e-05
 Reference value :  1.37502e-05
 Reference value :  1.37502e-05
 Reference value :  1.37502e-05
 Reference value :  1.37503e-05
 Reference value :  1.37504e-05
 Reference value :  1.37506e-05
 Reference value :  1.37509e-05
 Reference value :  1.37514e-05
 Reference value :  1.37519e-05
 Reference value :  1.37525e-05
 Reference value :  1.37533e-05
 Reference value :  1.37541e-05
 Reference value :  1.37553e-05
 Reference value :  1.37562e-05
 Reference value :  1.37572e-05
 Reference value :  1.37583e-05
 Reference value :  1.37598e-05
 Reference value :  1.37615e-05
 Reference value :  1.37639e-05
 Reference value :  1.37670e-05
 Reference value :  1.37725e-05
 Reference value :  1.37834e-05
 Reference value :  1.38023e-05
 Reference value :  1.38393e-05
 Reference value :  1.39107e-05
 Reference value :  1.40000e-05
 Reference value :  1.40000e-05
 Reference value :  1.40000e-05
 Reference value :  1.40001e-05
 Reference value :  1.40001e-05
 Reference value :  1.40001e-05
 Reference value :  1.40001e-05
 Reference value :  1.40001e-05
 Reference value :  1.40002e-05
 Reference value :  1.40002e-05
 Reference value :  1.40004e-05
 Reference value :  1.40005e-05
 Reference value :  1.40009e-05
 Reference value :  1.40014e-05
 Reference value :  1.40022e-05
 Reference value :  1.40028e-05
 Reference value :  1.40035e-05
 Reference value :  1.40042e-05
 Reference value :  1.40052e-05
 Reference value :  1.40061e-05
 Reference value :  1.40071e-05
 Reference value :  1.40085e-05
 Reference value :  1.40099e-05
 Reference value :  1.40112e-05
 Reference value :  1.40126e-05
 Reference value :  1.40139e-05
 Reference value :  1.40153e-05
 Reference value :  1.40169e-05
 Reference value :  1.40186e-05
 Reference value :  1.40220e-05
 Reference value :  1.40288e-05
 Reference value :  1.40403e-05
 Reference value :  1.40634e-05
 Reference value :  1.41069e-05
 Reference value :  1.41938e-05
 Reference value :  1.42501e-05
 Reference value :  1.42501e-05
 Reference value :  1.42501e-05
 Reference value :  1.42502e-05
 Reference value :  1.42502e-05
 Reference value :  1.42502e-05
 Reference value :  1.42502e-05
 Reference value :  1.42502e-05
 Reference value :  1.42502e-05
 Reference value :  1.42502e-05
 Reference value :  1.42502e-05
 Reference value :  1.42503e-05
 Reference value :  1.42504e-05
 Reference value :  1.42506e-05
 Reference value :  1.42509e-05
 Reference value :  1.42514e-05
 Reference value :  1.42519e-05
 Reference value :  1.42525e-05
 Reference value :  1.42533e-05
 Reference value :  1.42541e-05
 Reference value :  1.42553e-05
 Reference value :  1.42562e-05
 Reference value :  1.42572e-05
 Reference value :  1.42582e-05
 Reference value :  1.42593e-05
 Reference value :  1.42606e-05
 Reference value :  1.42618e-05
 Reference value :  1.42632e-05
 Reference value :  1.42654e-05
 Reference value :  1.42677e-05
 Reference value :  1.42713e-05
 Reference value :  1.42770e-05
 Reference value :  1.42884e-05
 Reference value :  1.43111e-05
 Reference value :  1.43562e-05
 Reference value :  1.44463e-05
 Reference value :  1.45000e-05
 Reference value :  1.45000e-05
 Reference value :  1.45000e-05
 Reference value :  1.45001e-05
 Reference value :  1.45001e-05
 Reference value :  1.45001e-05
 Reference value :  1.45001e-05
 Reference value :  1.45001e-05
 Reference value :  1.45002e-05
 Reference value :  1.45002e-05
 Reference value :  1.45004e-05
 Reference value :  1.45005e-05
 Reference value :  1.45009e-05
 Reference value :  1.45014e-05
 Reference value :  1.45022e-05
 Reference value :  1.45029e-05
 Reference value :  1.45036e-05
 Reference value :  1.45043e-05
 Reference value :  1.45051e-05
 Reference value :  1.45059e-05
 Reference value :  1.45067e-05
 Reference value :  1.45078e-05
 Reference value :  1.45088e-05
 Reference value :  1.45097e-05
 Reference value :  1.45108e-05
 Reference value :  1.45120e-05
 Reference value :  1.45137e-05
 Reference value :  1.45150e-05
 Reference value :  1.45163e-05
 Reference value :  1.45178e-05
 Reference value :  1.45194e-05
 Reference value :  1.45211e-05
 Reference value :  1.45222e-05
 Reference value :  1.45235e-05
 Reference value :  1.45247e-05
 Reference value :  1.45260e-05
 Reference value :  1.45275e-05
 Reference value :  1.45289e-05
 Reference value :  1.45310e-05
 Reference value :  1.45334e-05
 Reference value :  1.45369e-05
 Reference value :  1.45409e-05
 Reference value :  1.45450e-05
 Reference value :  1.45495e-05
 Reference value :  1.45536e-05
 Reference value :  1.45581e-05
 Reference value :  1.45624e-05
 Reference value :  1.45712e-05
 Reference value :  1.45837e-05
 Reference value :  1.46043e-05
 Reference value :  1.46311e-05
 Reference value :  1.46701e-05
 Reference value :  1.47002e-05
 Reference value :  1.47235e-05
 Reference value :  1.47441e-05
 Reference value :  1.47501e-05
 Reference value :  1.47501e-05
 Reference value :  1.47501e-05
 Reference value :  1.47502e-05
 Reference value :  1.47502e-05
 Reference value :  1.47502e-05
 Reference value :  1.47502e-05
 Reference value :  1.47502e-05
 Reference value :  1.47502e-05
 Reference value :  1.47502e-05
 Reference value :  1.47502e-05
 Reference value :  1.47503e-05
 Reference value :  1.47504e-05
 Reference value :  1.47506e-05
 Reference value :  1.47509e-05
 Reference value :  1.47514e-05
 Reference value :  1.47519e-05
 Reference value :  1.47525e-05
 Reference value :  1.47533e-05
 Reference value :  1.47541e-05
 Reference value :  1.47553e-05
 Reference value :  1.47563e-05
 Reference value :  1.47573e-05
 Reference value :  1.47584e-05
 Reference value :  1.47600e-05
 Reference value :  1.47618e-05
 Reference value :  1.47641e-05
 Reference value :  1.47675e-05
 Reference value :  1.47733e-05
 Reference value :  1.47848e-05
 Reference value :  1.48045e-05
 Reference value :  1.48281e-05
 Reference value :  1.48515e-05
 Reference value :  1.48802e-05
 Reference value :  1.49280e-05
 Reference value :  1.50000e-05
 Reference value :  1.50000e-05
 Reference value :  1.50000e-05
 Reference value :  1.50001e-05
 Reference value :  1.50001e-05
 Reference value :  1.50001e-05
 Reference value :  1.50001e-05
 Reference value :  1.50001e-05
 Reference value :  1.50002e-05
 Reference value :  1.50002e-05
 Reference value :  1.50004e-05
 Reference value :  1.50005e-05
 Reference value :  1.50009e-05
 Reference value :  1.50014e-05
 Reference value :  1.50022e-05
 Reference value :  1.50028e-05
 Reference value :  1.50035e-05
 Reference value :  1.50042e-05
 Reference value :  1.50051e-05
 Reference value :  1.50061e-05
 Reference value :  1.50070e-05
 Reference value :  1.50085e-05
 Reference value :  1.50099e-05
 Reference value :  1.50113e-05
 Reference value :  1.50128e-05
 Reference value :  1.50142e-05
 Reference value :  1.50157e-05
 Reference value :  1.50172e-05
 Reference value :  1.50190e-05
 Reference value :  1.50226e-05
 Reference value :  1.50284e-05
 Reference value :  1.50401e-05
 Reference value :  1.50622e-05
 Reference value :  1.51031e-05
 Reference value :  1.51848e-05
 Reference value :  1.52501e-05
 Reference value :  1.52501e-05
 Reference value :  1.52501e-05
 Reference value :  1.52502e-05
 Reference value :  1.52502e-05
 Reference value :  1.52502e-05
 Reference value :  1.52502e-05
 Reference value :  1.52502e-05
 Reference value :  1.52502e-05
 Reference value :  1.52502e-05
 Reference value :  1.52502e-05
 Reference value :  1.52503e-05
 Reference value :  1.52504e-05
 Reference value :  1.52506e-05
 Reference value :  1.52509e-05
 Reference value :  1.52514e-05
 Reference value :  1.52519e-05
 Reference value :  1.52525e-05
 Reference value :  1.52533e-05
 Reference value :  1.52541e-05
 Reference value :  1.52553e-05
 Reference value :  1.52562e-05
 Reference value :  1.52572e-05
 Reference value :  1.52582e-05
 Reference value :  1.52593e-05
 Reference value :  1.52606e-05
 Reference value :  1.52619e-05
 Reference value :  1.52633e-05
 Reference value :  1.52654e-05
 Reference value :  1.52677e-05
 Reference value :  1.52713e-05
 Reference value :  1.52771e-05
 Reference value :  1.52885e-05
 Reference value :  1.53115e-05
 Reference value :  1.53565e-05
 Reference value :  1.54465e-05
 Reference value :  1.55000e-05
 Reference value :  1.55008e-05
 Reference value :  1.55023e-05
 Reference value :  1.55031e-05
 Reference value :  1.55039e-05
 Reference value :  1.55048e-05
 Reference value :  1.55058e-05
 Reference value :  1.55066e-05
 Reference value :  1.55075e-05
 Reference value :  1.55083e-05
 Reference value :  1.55093e-05
 Reference value :  1.55103e-05
 Reference value :  1.55116e-05
 Reference value :  1.55130e-05
 Reference value :  1.55149e-05
 Reference value :  1.55167e-05
 Reference value :  1.55185e-05
 Reference value :  1.55203e-05
 Reference value :  1.55218e-05
 Reference value :  1.55234e-05
 Reference value :  1.55250e-05
 Reference value :  1.55267e-05
 Reference value :  1.55283e-05
 Reference value :  1.55303e-05
 Reference value :  1.55333e-05
 Reference value :  1.55362e-05
 Reference value :  1.55389e-05
 Reference value :  1.55416e-05
 Reference value :  1.55447e-05
 Reference value :  1.55494e-05
 Reference value :  1.55560e-05
 Reference value :  1.55644e-05
 Reference value :  1.55734e-05
 Reference value :  1.55895e-05
 Reference value :  1.56159e-05
 Reference value :  1.56558e-05
 Reference value :  1.57235e-05
 Reference value :  1.57501e-05
 Reference value :  1.57501e-05
 Reference value :  1.57501e-05
 Reference value :  1.57502e-05
 Reference value :  1.57502e-05
 Reference value :  1.57502e-05
 Reference value :  1.57502e-05
 Reference value :  1.57502e-05
 Reference value :  1.57502e-05
 Reference value :  1.57502e-05
 Reference value :  1.57502e-05
 Reference value :  1.57503e-05
 Reference value :  1.57504e-05
 Reference value :  1.57506e-05
 Reference value :  1.57509e-05
 Reference value :  1.57514e-05
 Reference value :  1.57519e-05
 Reference value :  1.57525e-05
 Reference value :  1.57533e-05
 Reference value :  1.57541e-05
 Reference value :  1.57553e-05
 Reference value :  1.57562e-05
 Reference value :  1.57572e-05
 Reference value :  1.57583e-05
 Reference value :  1.57599e-05
 Reference value :  1.57614e-05
 Reference value :  1.57638e-05
 Reference value :  1.57670e-05
 Reference value :  1.57725e-05
 Reference value :  1.57837e-05
 Reference value :  1.58027e-05
 Reference value :  1.58407e-05
 Reference value :  1.59101e-05
 Reference value :  1.60000e-05
 Reference value :  1.60000e-05
 Reference value :  1.60000e-05
 Reference value :  1.60001e-05
 Reference value :  1.60001e-05
 Reference value :  1.60001e-05
 Reference value :  1.60001e-05
 Reference value :  1.60001e-05
 Reference value :  1.60002e-05
 Reference value :  1.60002e-05
 Reference value :  1.60004e-05
 Reference value :  1.60005e-05
 Reference value :  1.60009e-05
[...]
 Reference value :  1.74261e-04
 Reference value :  1.74264e-04
 Reference value :  1.74267e-04
 Reference value :  1.74272e-04
 Reference value :  1.74283e-04
 Reference value :  1.74302e-04
 Reference value :  1.74340e-04
 Reference value :  1.74414e-04
 Reference value :  1.74500e-04
 Reference value :  1.74500e-04
 Reference value :  1.74500e-04
 Reference value :  1.74500e-04
 Reference value :  1.74500e-04
 Reference value :  1.74500e-04
 Reference value :  1.74500e-04
 Reference value :  1.74500e-04
 Reference value :  1.74500e-04
 Reference value :  1.74500e-04
 Reference value :  1.74500e-04
 Reference value :  1.74501e-04
 Reference value :  1.74501e-04
 Reference value :  1.74501e-04
 Reference value :  1.74502e-04
 Reference value :  1.74503e-04
 Reference value :  1.74504e-04
 Reference value :  1.74504e-04
 Reference value :  1.74505e-04
 Reference value :  1.74506e-04
 Reference value :  1.74507e-04
 Reference value :  1.74509e-04
 Reference value :  1.74510e-04
 Reference value :  1.74511e-04
 Reference value :  1.74512e-04
 Reference value :  1.74514e-04
 Reference value :  1.74515e-04
 Reference value :  1.74517e-04
 Reference value :  1.74519e-04
 Reference value :  1.74522e-04
 Reference value :  1.74529e-04
 Reference value :  1.74541e-04
 Reference value :  1.74564e-04
 Reference value :  1.74609e-04
 Reference value :  1.74691e-04
 Reference value :  1.74750e-04
 Reference value :  1.74750e-04
 Reference value :  1.74750e-04
 Reference value :  1.74750e-04
 Reference value :  1.74750e-04
 Reference value :  1.74750e-04
 Reference value :  1.74750e-04
 Reference value :  1.74750e-04
 Reference value :  1.74750e-04
 Reference value :  1.74750e-04
 Reference value :  1.74750e-04
 Reference value :  1.74750e-04
 Reference value :  1.74750e-04
 Reference value :  1.74751e-04
 Reference value :  1.74751e-04
 Reference value :  1.74751e-04
 Reference value :  1.74752e-04
 Reference value :  1.74752e-04
 Reference value :  1.74753e-04
 Reference value :  1.74754e-04
 Reference value :  1.74755e-04
 Reference value :  1.74756e-04
 Reference value :  1.74757e-04
 Reference value :  1.74758e-04
 Reference value :  1.74759e-04
 Reference value :  1.74761e-04
 Reference value :  1.74763e-04
 Reference value :  1.74766e-04
 Reference value :  1.74770e-04
 Reference value :  1.74779e-04
 Reference value :  1.74796e-04
 Reference value :  1.74829e-04
 Reference value :  1.74895e-04
 Reference value :  1.75000e-04
 Reference value :  1.75000e-04
 Reference value :  1.75000e-04
 Reference value :  1.75000e-04
 Reference value :  1.75000e-04
 Reference value :  1.75000e-04
 Reference value :  1.75000e-04
 Reference value :  1.75000e-04
 Reference value :  1.75000e-04
 Reference value :  1.75000e-04
 Reference value :  1.75000e-04
 Reference value :  1.75001e-04
 Reference value :  1.75001e-04
 Reference value :  1.75001e-04
 Reference value :  1.75002e-04
 Reference value :  1.75003e-04
 Reference value :  1.75004e-04
 Reference value :  1.75004e-04
 Reference value :  1.75005e-04
 Reference value :  1.75006e-04
 Reference value :  1.75007e-04
 Reference value :  1.75008e-04
 Reference value :  1.75009e-04
 Reference value :  1.75010e-04
 Reference value :  1.75011e-04
 Reference value :  1.75012e-04
 Reference value :  1.75014e-04
 Reference value :  1.75016e-04
 Reference value :  1.75018e-04
 Reference value :  1.75020e-04
 Reference value :  1.75022e-04
 Reference value :  1.75024e-04
 Reference value :  1.75025e-04
 Reference value :  1.75027e-04
 Reference value :  1.75029e-04
 Reference value :  1.75031e-04
 Reference value :  1.75033e-04
 Reference value :  1.75038e-04
 Reference value :  1.75044e-04
 Reference value :  1.75052e-04
 Reference value :  1.75061e-04
 Reference value :  1.75068e-04
 Reference value :  1.75074e-04
 Reference value :  1.75081e-04
 Reference value :  1.75089e-04
 Reference value :  1.75096e-04
 Reference value :  1.75105e-04
 Reference value :  1.75120e-04
 Reference value :  1.75137e-04
 Reference value :  1.75155e-04
 Reference value :  1.75177e-04
 Reference value :  1.75204e-04
 Reference value :  1.75226e-04
 Reference value :  1.75249e-04
 Reference value :  1.75250e-04
 Reference value :  1.75250e-04
 Reference value :  1.75250e-04
 Reference value :  1.75250e-04
 Reference value :  1.75250e-04
 Reference value :  1.75250e-04
 Reference value :  1.75250e-04
 Reference value :  1.75250e-04
 Reference value :  1.75250e-04
 Reference value :  1.75250e-04
 Reference value :  1.75250e-04
 Reference value :  1.75250e-04
 Reference value :  1.75250e-04
 Reference value :  1.75251e-04
 Reference value :  1.75251e-04
 Reference value :  1.75251e-04
 Reference value :  1.75252e-04
 Reference value :  1.75252e-04
 Reference value :  1.75253e-04
 Reference value :  1.75254e-04
 Reference value :  1.75255e-04
 Reference value :  1.75256e-04
 Reference value :  1.75257e-04
 Reference value :  1.75258e-04
 Reference value :  1.75260e-04
 Reference value :  1.75261e-04
 Reference value :  1.75264e-04
 Reference value :  1.75267e-04
 Reference value :  1.75272e-04
 Reference value :  1.75283e-04
 Reference value :  1.75302e-04
 Reference value :  1.75340e-04
 Reference value :  1.75413e-04
 Reference value :  1.75500e-04
 Reference value :  1.75500e-04
 Reference value :  1.75500e-04
 Reference value :  1.75500e-04
 Reference value :  1.75500e-04
 Reference value :  1.75500e-04
 Reference value :  1.75500e-04
 Reference value :  1.75500e-04
 Reference value :  1.75500e-04
 Reference value :  1.75500e-04
 Reference value :  1.75500e-04
 Reference value :  1.75501e-04
 Reference value :  1.75501e-04
 Reference value :  1.75501e-04
 Reference value :  1.75502e-04
 Reference value :  1.75503e-04
 Reference value :  1.75504e-04
 Reference value :  1.75504e-04
 Reference value :  1.75505e-04
 Reference value :  1.75506e-04
 Reference value :  1.75507e-04
 Reference value :  1.75509e-04
 Reference value :  1.75510e-04
 Reference value :  1.75511e-04
 Reference value :  1.75512e-04
 Reference value :  1.75514e-04
 Reference value :  1.75515e-04
 Reference value :  1.75517e-04
 Reference value :  1.75518e-04
 Reference value :  1.75522e-04
 Reference value :  1.75528e-04
 Reference value :  1.75540e-04
 Reference value :  1.75563e-04
 Reference value :  1.75605e-04
 Reference value :  1.75685e-04
 Reference value :  1.75750e-04
 Reference value :  1.75750e-04
 Reference value :  1.75750e-04
 Reference value :  1.75750e-04
 Reference value :  1.75750e-04
 Reference value :  1.75750e-04
 Reference value :  1.75750e-04
 Reference value :  1.75750e-04
 Reference value :  1.75750e-04
 Reference value :  1.75750e-04
 Reference value :  1.75750e-04
 Reference value :  1.75750e-04
 Reference value :  1.75750e-04
 Reference value :  1.75751e-04
 Reference value :  1.75751e-04
 Reference value :  1.75751e-04
 Reference value :  1.75752e-04
 Reference value :  1.75752e-04
 Reference value :  1.75753e-04
 Reference value :  1.75754e-04
 Reference value :  1.75755e-04
 Reference value :  1.75756e-04
 Reference value :  1.75757e-04
 Reference value :  1.75758e-04
 Reference value :  1.75759e-04
 Reference value :  1.75761e-04
 Reference value :  1.75763e-04
 Reference value :  1.75766e-04
 Reference value :  1.75770e-04
 Reference value :  1.75779e-04
 Reference value :  1.75796e-04
 Reference value :  1.75829e-04
 Reference value :  1.75895e-04
 Reference value :  1.76000e-04
 Reference value :  1.76000e-04
 Reference value :  1.76000e-04
 Reference value :  1.76000e-04
 Reference value :  1.76000e-04
 Reference value :  1.76000e-04
 Reference value :  1.76000e-04
 Reference value :  1.76000e-04
 Reference value :  1.76000e-04
 Reference value :  1.76000e-04
 Reference value :  1.76000e-04
 Reference value :  1.76001e-04
 Reference value :  1.76001e-04
 Reference value :  1.76001e-04
 Reference value :  1.76002e-04
 Reference value :  1.76003e-04
 Reference value :  1.76004e-04
 Reference value :  1.76004e-04
 Reference value :  1.76005e-04
 Reference value :  1.76006e-04
 Reference value :  1.76007e-04
 Reference value :  1.76008e-04
 Reference value :  1.76009e-04
 Reference value :  1.76010e-04
 Reference value :  1.76011e-04
 Reference value :  1.76012e-04
 Reference value :  1.76014e-04
 Reference value :  1.76016e-04
 Reference value :  1.76018e-04
 Reference value :  1.76021e-04
 Reference value :  1.76022e-04
 Reference value :  1.76024e-04
 Reference value :  1.76026e-04
 Reference value :  1.76028e-04
 Reference value :  1.76029e-04
 Reference value :  1.76032e-04
 Reference value :  1.76034e-04
 Reference value :  1.76039e-04
 Reference value :  1.76045e-04
 Reference value :  1.76052e-04
 Reference value :  1.76057e-04
 Reference value :  1.76062e-04
 Reference value :  1.76068e-04
 Reference value :  1.76074e-04
 Reference value :  1.76080e-04
 Reference value :  1.76088e-04
 Reference value :  1.76095e-04
 Reference value :  1.76109e-04
 Reference value :  1.76125e-04
 Reference value :  1.76149e-04
 Reference value :  1.76186e-04
 Reference value :  1.76239e-04
 Reference value :  1.76250e-04
 Reference value :  1.76250e-04
 Reference value :  1.76250e-04
 Reference value :  1.76250e-04
 Reference value :  1.76250e-04
 Reference value :  1.76250e-04
 Reference value :  1.76250e-04
 Reference value :  1.76250e-04
 Reference value :  1.76250e-04
 Reference value :  1.76250e-04
 Reference value :  1.76250e-04
 Reference value :  1.76250e-04
 Reference value :  1.76250e-04
 Reference value :  1.76251e-04
 Reference value :  1.76251e-04
 Reference value :  1.76251e-04
 Reference value :  1.76252e-04
 Reference value :  1.76252e-04
 Reference value :  1.76253e-04
 Reference value :  1.76254e-04
 Reference value :  1.76255e-04
 Reference value :  1.76256e-04
 Reference value :  1.76257e-04
 Reference value :  1.76258e-04
 Reference value :  1.76260e-04
 Reference value :  1.76261e-04
 Reference value :  1.76264e-04
 Reference value :  1.76267e-04
 Reference value :  1.76272e-04
 Reference value :  1.76283e-04
 Reference value :  1.76302e-04
 Reference value :  1.76339e-04
 Reference value :  1.76410e-04
 Reference value :  1.76500e-04
 Reference value :  1.76500e-04
 Reference value :  1.76500e-04
 Reference value :  1.76500e-04
 Reference value :  1.76500e-04
 Reference value :  1.76500e-04
 Reference value :  1.76500e-04
 Reference value :  1.76500e-04
 Reference value :  1.76500e-04
 Reference value :  1.76500e-04
 Reference value :  1.76500e-04
 Reference value :  1.76501e-04
 Reference value :  1.76501e-04
 Reference value :  1.76501e-04
 Reference value :  1.76502e-04
 Reference value :  1.76503e-04
 Reference value :  1.76504e-04
 Reference value :  1.76504e-04
 Reference value :  1.76505e-04
 Reference value :  1.76506e-04
 Reference value :  1.76507e-04
 Reference value :  1.76509e-04
 Reference value :  1.76510e-04
 Reference value :  1.76511e-04
 Reference value :  1.76513e-04
 Reference value :  1.76514e-04
 Reference value :  1.76516e-04
 Reference value :  1.76517e-04
 Reference value :  1.76519e-04
 Reference value :  1.76522e-04
 Reference value :  1.76529e-04
 Reference value :  1.76541e-04
 Reference value :  1.76565e-04
 Reference value :  1.76611e-04
 Reference value :  1.76667e-04
 Reference value :  1.76750e-04
 Reference value :  1.76750e-04
 Reference value :  1.76750e-04
 Reference value :  1.76750e-04
 Reference value :  1.76750e-04
 Reference value :  1.76750e-04
 Reference value :  1.76750e-04
 Reference value :  1.76750e-04
 Reference value :  1.76750e-04
 Reference value :  1.76750e-04
 Reference value :  1.76750e-04
 Reference value :  1.76750e-04
 Reference value :  1.76750e-04
 Reference value :  1.76751e-04
 Reference value :  1.76751e-04
 Reference value :  1.76751e-04
 Reference value :  1.76752e-04
 Reference value :  1.76752e-04
 Reference value :  1.76753e-04
 Reference value :  1.76754e-04
 Reference value :  1.76755e-04
 Reference value :  1.76756e-04
 Reference value :  1.76757e-04
 Reference value :  1.76758e-04
 Reference value :  1.76759e-04
 Reference value :  1.76760e-04
 Reference value :  1.76763e-04
 Reference value :  1.76765e-04
 Reference value :  1.76770e-04
 Reference value :  1.76778e-04
 Reference value :  1.76786e-04
 Reference value :  1.76798e-04
 Reference value :  1.76812e-04
 Reference value :  1.76838e-04
 Reference value :  1.76890e-04
 Reference value :  1.76996e-04
 Reference value :  1.77000e-04
 Reference value :  1.77000e-04
 Reference value :  1.77000e-04
 Reference value :  1.77000e-04
 Reference value :  1.77000e-04
 Reference value :  1.77000e-04
 Reference value :  1.77000e-04
 Reference value :  1.77000e-04
 Reference value :  1.77000e-04
 Reference value :  1.77000e-04
 Reference value :  1.77000e-04
 Reference value :  1.77001e-04
 Reference value :  1.77001e-04
 Reference value :  1.77001e-04
 Reference value :  1.77002e-04
 Reference value :  1.77003e-04
 Reference value :  1.77004e-04
 Reference value :  1.77004e-04
 Reference value :  1.77005e-04
 Reference value :  1.77006e-04
 Reference value :  1.77007e-04
 Reference value :  1.77008e-04
 Reference value :  1.77009e-04
 Reference value :  1.77010e-04
 Reference value :  1.77011e-04
 Reference value :  1.77012e-04
 Reference value :  1.77014e-04
 Reference value :  1.77016e-04
 Reference value :  1.77018e-04
 Reference value :  1.77021e-04
 Reference value :  1.77022e-04
 Reference value :  1.77024e-04
 Reference value :  1.77026e-04
 Reference value :  1.77028e-04
 Reference value :  1.77030e-04
 Reference value :  1.77032e-04
 Reference value :  1.77034e-04
 Reference value :  1.77038e-04
 Reference value :  1.77042e-04
 Reference value :  1.77045e-04
 Reference value :  1.77048e-04
 Reference value :  1.77052e-04
 Reference value :  1.77057e-04
 Reference value :  1.77064e-04
 Reference value :  1.77070e-04
 Reference value :  1.77078e-04
 Reference value :  1.77085e-04
 Reference value :  1.77100e-04
 Reference value :  1.77121e-04
 Reference value :  1.77154e-04
 Reference value :  1.77221e-04
 Reference value :  1.77250e-04
 Reference value :  1.77250e-04
 Reference value :  1.77250e-04
 Reference value :  1.77250e-04
 Reference value :  1.77250e-04
 Reference value :  1.77250e-04
 Reference value :  1.77250e-04
 Reference value :  1.77250e-04
 Reference value :  1.77250e-04
 Reference value :  1.77250e-04
 Reference value :  1.77250e-04
 Reference value :  1.77250e-04
 Reference value :  1.77250e-04
 Reference value :  1.77251e-04
 Reference value :  1.77251e-04
 Reference value :  1.77251e-04
 Reference value :  1.77252e-04
 Reference value :  1.77252e-04
 Reference value :  1.77253e-04
 Reference value :  1.77254e-04
 Reference value :  1.77255e-04
 Reference value :  1.77256e-04
 Reference value :  1.77257e-04
 Reference value :  1.77258e-04
 Reference value :  1.77259e-04
 Reference value :  1.77261e-04
 Reference value :  1.77263e-04
 Reference value :  1.77266e-04
 Reference value :  1.77270e-04
 Reference value :  1.77279e-04
 Reference value :  1.77296e-04
 Reference value :  1.77330e-04
 Reference value :  1.77398e-04
 Reference value :  1.77500e-04
 Reference value :  1.77500e-04
 Reference value :  1.77500e-04
 Reference value :  1.77500e-04
 Reference value :  1.77500e-04
 Reference value :  1.77500e-04
 Reference value :  1.77500e-04
 Reference value :  1.77500e-04
 Reference value :  1.77500e-04
 Reference value :  1.77500e-04
 Reference value :  1.77500e-04
 Reference value :  1.77501e-04
 Reference value :  1.77501e-04
 Reference value :  1.77501e-04
 Reference value :  1.77502e-04
 Reference value :  1.77503e-04
 Reference value :  1.77503e-04
 Reference value :  1.77504e-04
 Reference value :  1.77505e-04
 Reference value :  1.77506e-04
 Reference value :  1.77507e-04
 Reference value :  1.77508e-04
 Reference value :  1.77510e-04
 Reference value :  1.77511e-04
 Reference value :  1.77512e-04
 Reference value :  1.77514e-04
 Reference value :  1.77515e-04
 Reference value :  1.77517e-04
 Reference value :  1.77519e-04
 Reference value :  1.77522e-04
 Reference value :  1.77527e-04
 Reference value :  1.77536e-04
 Reference value :  1.77552e-04
 Reference value :  1.77582e-04
 Reference value :  1.77637e-04
 Reference value :  1.77739e-04
 Reference value :  1.77750e-04
 Reference value :  1.77750e-04
 Reference value :  1.77750e-04
 Reference value :  1.77750e-04
 Reference value :  1.77750e-04
 Reference value :  1.77750e-04
 Reference value :  1.77750e-04
 Reference value :  1.77750e-04
 Reference value :  1.77750e-04
 Reference value :  1.77750e-04
 Reference value :  1.77750e-04
 Reference value :  1.77750e-04
 Reference value :  1.77750e-04
 Reference value :  1.77751e-04
 Reference value :  1.77751e-04
 Reference value :  1.77751e-04
 Reference value :  1.77752e-04
 Reference value :  1.77752e-04
 Reference value :  1.77753e-04
 Reference value :  1.77754e-04
 Reference value :  1.77755e-04
 Reference value :  1.77756e-04
 Reference value :  1.77757e-04
 Reference value :  1.77758e-04
 Reference value :  1.77759e-04
 Reference value :  1.77761e-04
 Reference value :  1.77762e-04
 Reference value :  1.77763e-04
 Reference value :  1.77765e-04
 Reference value :  1.77768e-04
 Reference value :  1.77771e-04
 Reference value :  1.77777e-04
 Reference value :  1.77789e-04
 Reference value :  1.77812e-04
 Reference value :  1.77855e-04
 Reference value :  1.77940e-04
 Reference value :  1.78000e-04
 Reference value :  1.78000e-04
 Reference value :  1.78000e-04
 Reference value :  1.78000e-04
 Reference value :  1.78000e-04
 Reference value :  1.78000e-04
 Reference value :  1.78000e-04
 Reference value :  1.78000e-04
 Reference value :  1.78000e-04
 Reference value :  1.78000e-04
 Reference value :  1.78000e-04
 Reference value :  1.78001e-04
 Reference value :  1.78001e-04
 Reference value :  1.78001e-04
 Reference value :  1.78002e-04
 Reference value :  1.78003e-04
 Reference value :  1.78003e-04
 Reference value :  1.78004e-04
 Reference value :  1.78005e-04
 Reference value :  1.78006e-04
 Reference value :  1.78007e-04
 Reference value :  1.78008e-04
 Reference value :  1.78009e-04
 Reference value :  1.78010e-04
 Reference value :  1.78011e-04
 Reference value :  1.78012e-04
 Reference value :  1.78014e-04
 Reference value :  1.78015e-04
 Reference value :  1.78017e-04
 Reference value :  1.78018e-04
 Reference value :  1.78020e-04
 Reference value :  1.78022e-04
 Reference value :  1.78024e-04
 Reference value :  1.78027e-04
 Reference value :  1.78030e-04
 Reference value :  1.78036e-04
 Reference value :  1.78043e-04
 Reference value :  1.78051e-04
 Reference value :  1.78056e-04
 Reference value :  1.78062e-04
 Reference value :  1.78070e-04
 Reference value :  1.78082e-04
 Reference value :  1.78099e-04
 Reference value :  1.78119e-04
 Reference value :  1.78141e-04
 Reference value :  1.78171e-04
 Reference value :  1.78230e-04
 Reference value :  1.78250e-04
 Reference value :  1.78250e-04
 Reference value :  1.78250e-04
 Reference value :  1.78250e-04
 Reference value :  1.78250e-04
 Reference value :  1.78250e-04
 Reference value :  1.78250e-04
 Reference value :  1.78250e-04
 Reference value :  1.78250e-04
 Reference value :  1.78250e-04
 Reference value :  1.78250e-04
 Reference value :  1.78250e-04
 Reference value :  1.78250e-04
 Reference value :  1.78251e-04
 Reference value :  1.78251e-04
 Reference value :  1.78251e-04
 Reference value :  1.78252e-04
 Reference value :  1.78253e-04
 Reference value :  1.78253e-04
 Reference value :  1.78254e-04
 Reference value :  1.78255e-04
 Reference value :  1.78256e-04
 Reference value :  1.78258e-04
 Reference value :  1.78259e-04
 Reference value :  1.78261e-04
 Reference value :  1.78264e-04
 Reference value :  1.78267e-04
 Reference value :  1.78272e-04
 Reference value :  1.78282e-04
 Reference value :  1.78299e-04
 Reference value :  1.78332e-04
 Reference value :  1.78391e-04
 Reference value :  1.78500e-04
No. of Data Rows : 27103
ngspice-44 done
