
Note: Compatibility modes selected: hs a


Circuit: ** sch_path: /home/audrey/cace/sar-adc-using-sky130-pdk/runs/run_2025-09-01_17-03-11/parameters/power/run_2/power_consumption.sch

option SCALE: Scale is set to 1e-06 for instance and model parameters
option SCALE: Scale is set to 1e-06 for instance and model parameters
option SCALE: Scale is set to 1e-06 for instance and model parameters
option SCALE: Scale is set to 1e-06 for instance and model parameters
Doing analysis at TEMP = 27.000000 and TNOM = 27.000000

Using KLU as Direct Linear Solver
 Reference value :  0.00000e+00
 Reference value :  1.00000e-12
 Reference value :  2.00000e-12
 Reference value :  4.00000e-12
 Reference value :  8.00000e-12
 Reference value :  1.60000e-11
 Reference value :  3.20000e-11
 Reference value :  6.40000e-11
 Reference value :  1.00000e-10
 Reference value :  1.00578e-10
 Reference value :  1.01734e-10
 Reference value :  1.04046e-10
 Reference value :  1.08670e-10
 Reference value :  1.17918e-10
 Reference value :  1.36413e-10
 Reference value :  1.73404e-10
 Reference value :  2.31921e-10
 Reference value :  3.15591e-10
 Reference value :  4.57734e-10
 Reference value :  7.42019e-10
 Reference value :  1.17203e-09
 Reference value :  1.65099e-09
 Reference value :  2.27542e-09
 Reference value :  3.02125e-09
 Reference value :  3.73223e-09
 Reference value :  4.62308e-09
 Reference value :  5.35185e-09
 Reference value :  6.12181e-09
 Reference value :  6.97877e-09
 Reference value :  7.77846e-09
 Reference value :  8.62150e-09
 Reference value :  9.52332e-09
 Reference value :  1.06411e-08
 Reference value :  1.18246e-08
 Reference value :  1.31131e-08
 Reference value :  1.43408e-08
 Reference value :  1.57895e-08
 Reference value :  1.71737e-08
 Reference value :  1.90760e-08
 Reference value :  2.04889e-08
 Reference value :  2.18405e-08
 Reference value :  2.32521e-08
 Reference value :  2.50152e-08
 Reference value :  2.68912e-08
 Reference value :  2.94637e-08
 Reference value :  3.23506e-08
 Reference value :  3.67698e-08
 Reference value :  4.10597e-08
 Reference value :  4.57242e-08
 Reference value :  4.99396e-08
 Reference value :  5.31093e-08
 Reference value :  5.57351e-08
 Reference value :  5.73229e-08
 Reference value :  5.89523e-08
 Reference value :  6.08436e-08
 Reference value :  6.26268e-08
 Reference value :  6.49735e-08
 Reference value :  6.76481e-08
 Reference value :  7.10832e-08
 Reference value :  7.54794e-08
 Reference value :  8.11704e-08
 Reference value :  8.89195e-08
 Reference value :  9.93528e-08
 Reference value :  1.13796e-07
 Reference value :  1.36081e-07
 Reference value :  1.74663e-07
 Reference value :  2.27674e-07
 Reference value :  2.50100e-07
 Reference value :  2.50110e-07
 Reference value :  2.50130e-07
 Reference value :  2.50170e-07
 Reference value :  2.50200e-07
 Reference value :  2.50201e-07
 Reference value :  2.50202e-07
 Reference value :  2.50204e-07
 Reference value :  2.50208e-07
 Reference value :  2.50216e-07
 Reference value :  2.50232e-07
 Reference value :  2.50265e-07
 Reference value :  2.50331e-07
 Reference value :  2.50413e-07
 Reference value :  2.50576e-07
 Reference value :  2.50756e-07
 Reference value :  2.51099e-07
 Reference value :  2.51497e-07
 Reference value :  2.52186e-07
 Reference value :  2.52821e-07
 Reference value :  2.53569e-07
 Reference value :  2.54551e-07
 Reference value :  2.55541e-07
 Reference value :  2.56566e-07
 Reference value :  2.57736e-07
 Reference value :  2.58848e-07
 Reference value :  2.60117e-07
 Reference value :  2.61380e-07
 Reference value :  2.63092e-07
 Reference value :  2.65815e-07
 Reference value :  2.69940e-07
 Reference value :  2.77656e-07
 Reference value :  2.90033e-07
 Reference value :  3.11979e-07
 Reference value :  3.50461e-07
 Reference value :  4.16242e-07
 Reference value :  5.00000e-07
 Reference value :  5.00010e-07
 Reference value :  5.00030e-07
 Reference value :  5.00070e-07
 Reference value :  5.00100e-07
 Reference value :  5.00101e-07
 Reference value :  5.00102e-07
 Reference value :  5.00104e-07
 Reference value :  5.00108e-07
 Reference value :  5.00116e-07
 Reference value :  5.00133e-07
 Reference value :  5.00166e-07
 Reference value :  5.00232e-07
 Reference value :  5.00364e-07
 Reference value :  5.00562e-07
 Reference value :  5.00958e-07
 Reference value :  5.01468e-07
 Reference value :  5.02004e-07
 Reference value :  5.02765e-07
 Reference value :  5.03571e-07
 Reference value :  5.04319e-07
 Reference value :  5.05131e-07
 Reference value :  5.06130e-07
 Reference value :  5.07181e-07
 Reference value :  5.08420e-07
 Reference value :  5.09733e-07
 Reference value :  5.11727e-07
 Reference value :  5.13533e-07
 Reference value :  5.15579e-07
 Reference value :  5.17538e-07
 Reference value :  5.19737e-07
 Reference value :  5.24135e-07
 Reference value :  5.27151e-07
 Reference value :  5.30656e-07
 Reference value :  5.34487e-07
 Reference value :  5.38547e-07
 Reference value :  5.44807e-07
 Reference value :  5.50740e-07
 Reference value :  5.56407e-07
 Reference value :  5.61661e-07
 Reference value :  5.66957e-07
 Reference value :  5.73043e-07
 Reference value :  5.81719e-07
 Reference value :  5.89285e-07
 Reference value :  5.95883e-07
 Reference value :  6.03038e-07
 Reference value :  6.15190e-07
 Reference value :  6.35696e-07
 Reference value :  6.68335e-07
 Reference value :  7.25926e-07
 Reference value :  7.50100e-07
 Reference value :  7.50110e-07
 Reference value :  7.50130e-07
 Reference value :  7.50170e-07
 Reference value :  7.50200e-07
 Reference value :  7.50201e-07
 Reference value :  7.50202e-07
 Reference value :  7.50204e-07
 Reference value :  7.50208e-07
 Reference value :  7.50216e-07
 Reference value :  7.50233e-07
 Reference value :  7.50266e-07
 Reference value :  7.50333e-07
 Reference value :  7.50467e-07
 Reference value :  7.50644e-07
 Reference value :  7.50914e-07
 Reference value :  7.51454e-07
 Reference value :  7.52100e-07
 Reference value :  7.52801e-07
 Reference value :  7.53530e-07
 Reference value :  7.54428e-07
 Reference value :  7.55526e-07
 Reference value :  7.56677e-07
 Reference value :  7.57716e-07
 Reference value :  7.58821e-07
 Reference value :  7.59815e-07
 Reference value :  7.60868e-07
 Reference value :  7.62106e-07
 Reference value :  7.63407e-07
 Reference value :  7.64976e-07
 Reference value :  7.66917e-07
 Reference value :  7.69546e-07
 Reference value :  7.72659e-07
 Reference value :  7.77566e-07
 Reference value :  7.87380e-07
 Reference value :  8.04659e-07
 Reference value :  8.36621e-07
 Reference value :  8.96617e-07
 Reference value :  1.00000e-06
 Reference value :  1.00001e-06
 Reference value :  1.00003e-06
 Reference value :  1.00007e-06
 Reference value :  1.00010e-06
 Reference value :  1.00010e-06
 Reference value :  1.00010e-06
 Reference value :  1.00010e-06
 Reference value :  1.00011e-06
 Reference value :  1.00012e-06
 Reference value :  1.00013e-06
 Reference value :  1.00017e-06
 Reference value :  1.00023e-06
 Reference value :  1.00036e-06
 Reference value :  1.00056e-06
 Reference value :  1.00096e-06
 Reference value :  1.00147e-06
 Reference value :  1.00201e-06
 Reference value :  1.00276e-06
 Reference value :  1.00346e-06
 Reference value :  1.00420e-06
 Reference value :  1.00499e-06
 Reference value :  1.00587e-06
 Reference value :  1.00691e-06
 Reference value :  1.00768e-06
 Reference value :  1.00855e-06
 Reference value :  1.00939e-06
 Reference value :  1.01026e-06
 Reference value :  1.01144e-06
 Reference value :  1.01269e-06
 Reference value :  1.01520e-06
 Reference value :  1.01755e-06
 Reference value :  1.01942e-06
 Reference value :  1.02149e-06
 Reference value :  1.02430e-06
 Reference value :  1.02656e-06
 Reference value :  1.02859e-06
 Reference value :  1.03009e-06
 Reference value :  1.03149e-06
 Reference value :  1.03303e-06
 Reference value :  1.03459e-06
 Reference value :  1.03635e-06
 Reference value :  1.03914e-06
 Reference value :  1.04203e-06
 Reference value :  1.04782e-06
 Reference value :  1.05649e-06
 Reference value :  1.06578e-06
 Reference value :  1.07771e-06
 Reference value :  1.10158e-06
 Reference value :  1.12340e-06
 Reference value :  1.13922e-06
 Reference value :  1.15397e-06
 Reference value :  1.16869e-06
 Reference value :  1.18797e-06
 Reference value :  1.20614e-06
 Reference value :  1.23326e-06
 Reference value :  1.25010e-06
 Reference value :  1.25011e-06
 Reference value :  1.25013e-06
 Reference value :  1.25017e-06
 Reference value :  1.25020e-06
 Reference value :  1.25020e-06
 Reference value :  1.25020e-06
 Reference value :  1.25020e-06
 Reference value :  1.25021e-06
 Reference value :  1.25022e-06
 Reference value :  1.25023e-06
 Reference value :  1.25027e-06
 Reference value :  1.25033e-06
 Reference value :  1.25047e-06
 Reference value :  1.25064e-06
 Reference value :  1.25091e-06
 Reference value :  1.25145e-06
 Reference value :  1.25210e-06
 Reference value :  1.25288e-06
 Reference value :  1.25358e-06
 Reference value :  1.25455e-06
 Reference value :  1.25561e-06
 Reference value :  1.25655e-06
 Reference value :  1.25765e-06
 Reference value :  1.25878e-06
 Reference value :  1.25995e-06
 Reference value :  1.26148e-06
 Reference value :  1.26403e-06
 Reference value :  1.26749e-06
 Reference value :  1.27281e-06
 Reference value :  1.28346e-06
 Reference value :  1.29981e-06
 Reference value :  1.33251e-06
 Reference value :  1.39791e-06
 Reference value :  1.50000e-06
 Reference value :  1.50001e-06
 Reference value :  1.50003e-06
 Reference value :  1.50007e-06
 Reference value :  1.50010e-06
 Reference value :  1.50010e-06
 Reference value :  1.50010e-06
 Reference value :  1.50010e-06
 Reference value :  1.50011e-06
 Reference value :  1.50012e-06
 Reference value :  1.50013e-06
 Reference value :  1.50017e-06
 Reference value :  1.50023e-06
 Reference value :  1.50036e-06
 Reference value :  1.50056e-06
 Reference value :  1.50095e-06
 Reference value :  1.50146e-06
 Reference value :  1.50200e-06
 Reference value :  1.50275e-06
 Reference value :  1.50344e-06
 Reference value :  1.50417e-06
 Reference value :  1.50501e-06
 Reference value :  1.50593e-06
 Reference value :  1.50689e-06
 Reference value :  1.50789e-06
 Reference value :  1.50945e-06
 Reference value :  1.51098e-06
 Reference value :  1.51307e-06
 Reference value :  1.51465e-06
 Reference value :  1.51637e-06
 Reference value :  1.51844e-06
 Reference value :  1.52066e-06
 Reference value :  1.52444e-06
 Reference value :  1.52947e-06
 Reference value :  1.53780e-06
 Reference value :  1.55137e-06
 Reference value :  1.57449e-06
 Reference value :  1.62059e-06
 Reference value :  1.70001e-06
 Reference value :  1.75010e-06
 Reference value :  1.75011e-06
 Reference value :  1.75013e-06
 Reference value :  1.75017e-06
 Reference value :  1.75020e-06
 Reference value :  1.75020e-06
 Reference value :  1.75020e-06
 Reference value :  1.75020e-06
 Reference value :  1.75021e-06
 Reference value :  1.75022e-06
 Reference value :  1.75023e-06
 Reference value :  1.75027e-06
 Reference value :  1.75033e-06
 Reference value :  1.75047e-06
 Reference value :  1.75064e-06
 Reference value :  1.75091e-06
 Reference value :  1.75145e-06
 Reference value :  1.75210e-06
 Reference value :  1.75288e-06
 Reference value :  1.75358e-06
 Reference value :  1.75454e-06
 Reference value :  1.75561e-06
 Reference value :  1.75653e-06
 Reference value :  1.75762e-06
 Reference value :  1.75852e-06
 Reference value :  1.75951e-06
 Reference value :  1.76068e-06
 Reference value :  1.76201e-06
 Reference value :  1.76467e-06
 Reference value :  1.76854e-06
 Reference value :  1.77529e-06
 Reference value :  1.78846e-06
 Reference value :  1.81014e-06
 Reference value :  1.85351e-06
 Reference value :  1.94024e-06
 Reference value :  2.00000e-06
 Reference value :  2.00001e-06
 Reference value :  2.00003e-06
 Reference value :  2.00007e-06
 Reference value :  2.00010e-06
 Reference value :  2.00010e-06
 Reference value :  2.00010e-06
 Reference value :  2.00010e-06
 Reference value :  2.00011e-06
 Reference value :  2.00012e-06
 Reference value :  2.00013e-06
 Reference value :  2.00017e-06
 Reference value :  2.00023e-06
 Reference value :  2.00036e-06
 Reference value :  2.00056e-06
 Reference value :  2.00095e-06
 Reference value :  2.00146e-06
 Reference value :  2.00200e-06
 Reference value :  2.00275e-06
 Reference value :  2.00345e-06
 Reference value :  2.00418e-06
 Reference value :  2.00498e-06
 Reference value :  2.00586e-06
 Reference value :  2.00661e-06
 Reference value :  2.00746e-06
 Reference value :  2.00819e-06
 Reference value :  2.00904e-06
 Reference value :  2.01012e-06
 Reference value :  2.01126e-06
 Reference value :  2.01328e-06
 Reference value :  2.01572e-06
 Reference value :  2.01879e-06
 Reference value :  2.02225e-06
 Reference value :  2.02507e-06
 Reference value :  2.02735e-06
 Reference value :  2.02948e-06
 Reference value :  2.03161e-06
 Reference value :  2.03378e-06
 Reference value :  2.03631e-06
 Reference value :  2.03954e-06
 Reference value :  2.04493e-06
 Reference value :  2.05213e-06
 Reference value :  2.06462e-06
 Reference value :  2.08341e-06
 Reference value :  2.11310e-06
 Reference value :  2.16180e-06
 Reference value :  2.24144e-06
 Reference value :  2.25010e-06
 Reference value :  2.25011e-06
 Reference value :  2.25013e-06
 Reference value :  2.25017e-06
 Reference value :  2.25020e-06
 Reference value :  2.25020e-06
 Reference value :  2.25020e-06
 Reference value :  2.25020e-06
 Reference value :  2.25021e-06
 Reference value :  2.25022e-06
 Reference value :  2.25023e-06
 Reference value :  2.25027e-06
 Reference value :  2.25033e-06
 Reference value :  2.25047e-06
 Reference value :  2.25064e-06
 Reference value :  2.25091e-06
 Reference value :  2.25145e-06
 Reference value :  2.25210e-06
 Reference value :  2.25288e-06
 Reference value :  2.25358e-06
 Reference value :  2.25454e-06
 Reference value :  2.25561e-06
 Reference value :  2.25659e-06
 Reference value :  2.25771e-06
 Reference value :  2.25879e-06
 Reference value :  2.26041e-06
 Reference value :  2.26247e-06
 Reference value :  2.26506e-06
 Reference value :  2.26894e-06
 Reference value :  2.27571e-06
 Reference value :  2.28669e-06
 Reference value :  2.30518e-06
 Reference value :  2.34215e-06
 Reference value :  2.41503e-06
 Reference value :  2.50000e-06
 Reference value :  2.50001e-06
 Reference value :  2.50003e-06
 Reference value :  2.50007e-06
 Reference value :  2.50010e-06
 Reference value :  2.50010e-06
 Reference value :  2.50010e-06
 Reference value :  2.50010e-06
 Reference value :  2.50011e-06
 Reference value :  2.50012e-06
 Reference value :  2.50013e-06
 Reference value :  2.50017e-06
 Reference value :  2.50023e-06
 Reference value :  2.50036e-06
 Reference value :  2.50055e-06
 Reference value :  2.50091e-06
 Reference value :  2.50141e-06
 Reference value :  2.50194e-06
 Reference value :  2.50269e-06
 Reference value :  2.50338e-06
 Reference value :  2.50409e-06
 Reference value :  2.50487e-06
 Reference value :  2.50575e-06
 Reference value :  2.50670e-06
 Reference value :  2.50792e-06
 Reference value :  2.50945e-06
 Reference value :  2.51166e-06
 Reference value :  2.51318e-06
 Reference value :  2.51483e-06
 Reference value :  2.51649e-06
 Reference value :  2.51879e-06
 Reference value :  2.52131e-06
 Reference value :  2.52555e-06
 Reference value :  2.53159e-06
 Reference value :  2.54132e-06
 Reference value :  2.56034e-06
 Reference value :  2.59015e-06
 Reference value :  2.64533e-06
 Reference value :  2.73989e-06
 Reference value :  2.75010e-06
 Reference value :  2.75011e-06
 Reference value :  2.75013e-06
 Reference value :  2.75017e-06
 Reference value :  2.75020e-06
 Reference value :  2.75020e-06
 Reference value :  2.75020e-06
 Reference value :  2.75020e-06
 Reference value :  2.75021e-06
 Reference value :  2.75022e-06
 Reference value :  2.75023e-06
 Reference value :  2.75027e-06
 Reference value :  2.75033e-06
 Reference value :  2.75047e-06
 Reference value :  2.75064e-06
 Reference value :  2.75091e-06
 Reference value :  2.75145e-06
 Reference value :  2.75210e-06
 Reference value :  2.75287e-06
 Reference value :  2.75358e-06
 Reference value :  2.75455e-06
 Reference value :  2.75549e-06
 Reference value :  2.75652e-06
 Reference value :  2.75754e-06
 Reference value :  2.75847e-06
 Reference value :  2.75954e-06
 Reference value :  2.76077e-06
 Reference value :  2.76322e-06
 Reference value :  2.76637e-06
 Reference value :  2.77092e-06
 Reference value :  2.77913e-06
 Reference value :  2.79352e-06
 Reference value :  2.81742e-06
 Reference value :  2.86522e-06
 Reference value :  2.96082e-06
 Reference value :  3.00000e-06
 Reference value :  3.00001e-06
 Reference value :  3.00003e-06
 Reference value :  3.00007e-06
 Reference value :  3.00010e-06
 Reference value :  3.00010e-06
 Reference value :  3.00010e-06
 Reference value :  3.00010e-06
 Reference value :  3.00011e-06
 Reference value :  3.00012e-06
 Reference value :  3.00013e-06
 Reference value :  3.00017e-06
 Reference value :  3.00023e-06
 Reference value :  3.00036e-06
 Reference value :  3.00055e-06
 Reference value :  3.00091e-06
 Reference value :  3.00141e-06
 Reference value :  3.00194e-06
 Reference value :  3.00269e-06
 Reference value :  3.00338e-06
 Reference value :  3.00409e-06
 Reference value :  3.00487e-06
 Reference value :  3.00574e-06
 Reference value :  3.00666e-06
 Reference value :  3.00763e-06
 Reference value :  3.00843e-06
 Reference value :  3.00935e-06
 Reference value :  3.01050e-06
 Reference value :  3.01173e-06
 Reference value :  3.01404e-06
 Reference value :  3.01621e-06
 Reference value :  3.01902e-06
 Reference value :  3.02131e-06
 Reference value :  3.02338e-06
 Reference value :  3.02483e-06
 Reference value :  3.02637e-06
 Reference value :  3.02796e-06
 Reference value :  3.02957e-06
 Reference value :  3.03141e-06
 Reference value :  3.03430e-06
 Reference value :  3.03728e-06
 Reference value :  3.04324e-06
 Reference value :  3.05176e-06
 Reference value :  3.06590e-06
 Reference value :  3.08567e-06
 Reference value :  3.10968e-06
 Reference value :  3.12714e-06
 Reference value :  3.14494e-06
 Reference value :  3.15789e-06
 Reference value :  3.16970e-06
 Reference value :  3.18071e-06
 Reference value :  3.19094e-06
 Reference value :  3.19939e-06
 Reference value :  3.20900e-06
 Reference value :  3.22636e-06
 Reference value :  3.23789e-06
 Reference value :  3.24782e-06
 Reference value :  3.25010e-06
 Reference value :  3.25011e-06
 Reference value :  3.25013e-06
 Reference value :  3.25017e-06
 Reference value :  3.25020e-06
 Reference value :  3.25020e-06
 Reference value :  3.25020e-06
 Reference value :  3.25020e-06
 Reference value :  3.25021e-06
 Reference value :  3.25022e-06
 Reference value :  3.25023e-06
 Reference value :  3.25027e-06
 Reference value :  3.25033e-06
 Reference value :  3.25047e-06
 Reference value :  3.25064e-06
 Reference value :  3.25091e-06
 Reference value :  3.25145e-06
 Reference value :  3.25210e-06
 Reference value :  3.25287e-06
 Reference value :  3.25358e-06
 Reference value :  3.25455e-06
 Reference value :  3.25561e-06
 Reference value :  3.25650e-06
 Reference value :  3.25746e-06
 Reference value :  3.25845e-06
 Reference value :  3.25980e-06
 Reference value :  3.26122e-06
 Reference value :  3.26386e-06
 Reference value :  3.26712e-06
 Reference value :  3.27229e-06
 Reference value :  3.28263e-06
 Reference value :  3.29856e-06
 Reference value :  3.33012e-06
 Reference value :  3.37761e-06
 Reference value :  3.42857e-06
 Reference value :  3.49891e-06
 Reference value :  3.50000e-06
 Reference value :  3.50001e-06
 Reference value :  3.50003e-06
 Reference value :  3.50007e-06
 Reference value :  3.50010e-06
 Reference value :  3.50010e-06
 Reference value :  3.50010e-06
 Reference value :  3.50010e-06
 Reference value :  3.50011e-06
 Reference value :  3.50012e-06
 Reference value :  3.50013e-06
 Reference value :  3.50017e-06
 Reference value :  3.50023e-06
 Reference value :  3.50036e-06
 Reference value :  3.50055e-06
 Reference value :  3.50091e-06
 Reference value :  3.50141e-06
 Reference value :  3.50194e-06
 Reference value :  3.50269e-06
 Reference value :  3.50337e-06
 Reference value :  3.50409e-06
 Reference value :  3.50490e-06
 Reference value :  3.50579e-06
 Reference value :  3.50679e-06
 Reference value :  3.50791e-06
 Reference value :  3.50964e-06
 Reference value :  3.51111e-06
 Reference value :  3.51277e-06
 Reference value :  3.51448e-06
 Reference value :  3.51629e-06
 Reference value :  3.51807e-06
 Reference value :  3.52063e-06
 Reference value :  3.52349e-06
 Reference value :  3.52844e-06
 Reference value :  3.53595e-06
 Reference value :  3.54861e-06
 Reference value :  3.57126e-06
 Reference value :  3.60990e-06
 Reference value :  3.68037e-06
 Reference value :  3.75010e-06
 Reference value :  3.75011e-06
 Reference value :  3.75013e-06
 Reference value :  3.75017e-06
 Reference value :  3.75020e-06
 Reference value :  3.75020e-06
 Reference value :  3.75020e-06
 Reference value :  3.75020e-06
 Reference value :  3.75021e-06
 Reference value :  3.75022e-06
 Reference value :  3.75023e-06
 Reference value :  3.75027e-06
 Reference value :  3.75033e-06
 Reference value :  3.75047e-06
 Reference value :  3.75064e-06
 Reference value :  3.75091e-06
 Reference value :  3.75145e-06
 Reference value :  3.75210e-06
 Reference value :  3.75288e-06
 Reference value :  3.75358e-06
 Reference value :  3.75454e-06
 Reference value :  3.75561e-06
 Reference value :  3.75651e-06
 Reference value :  3.75749e-06
 Reference value :  3.75843e-06
 Reference value :  3.75944e-06
 Reference value :  3.76062e-06
 Reference value :  3.76298e-06
 Reference value :  3.76610e-06
 Reference value :  3.77060e-06
 Reference value :  3.77849e-06
 Reference value :  3.79427e-06
 Reference value :  3.82430e-06
 Reference value :  3.88435e-06
 Reference value :  4.00000e-06
 Reference value :  4.00001e-06
 Reference value :  4.00003e-06
 Reference value :  4.00007e-06
 Reference value :  4.00010e-06
 Reference value :  4.00010e-06
 Reference value :  4.00010e-06
 Reference value :  4.00010e-06
 Reference value :  4.00011e-06
 Reference value :  4.00012e-06
 Reference value :  4.00013e-06
 Reference value :  4.00017e-06
 Reference value :  4.00023e-06
 Reference value :  4.00036e-06
 Reference value :  4.00055e-06
 Reference value :  4.00091e-06
 Reference value :  4.00141e-06
 Reference value :  4.00194e-06
 Reference value :  4.00269e-06
 Reference value :  4.00337e-06
 Reference value :  4.00409e-06
 Reference value :  4.00488e-06
 Reference value :  4.00575e-06
 Reference value :  4.00657e-06
 Reference value :  4.00743e-06
 Reference value :  4.00840e-06
 Reference value :  4.00935e-06
 Reference value :  4.01035e-06
 Reference value :  4.01180e-06
 Reference value :  4.01329e-06
 Reference value :  4.01576e-06
 Reference value :  4.01845e-06
 Reference value :  4.02086e-06
 Reference value :  4.02345e-06
 Reference value :  4.02536e-06
 Reference value :  4.02719e-06
 Reference value :  4.02882e-06
 Reference value :  4.03059e-06
 Reference value :  4.03264e-06
 Reference value :  4.03525e-06
 Reference value :  4.03836e-06
 Reference value :  4.04336e-06
 Reference value :  4.04941e-06
 Reference value :  4.05535e-06
 Reference value :  4.05979e-06
 Reference value :  4.06562e-06
 Reference value :  4.07053e-06
 Reference value :  4.07430e-06
 Reference value :  4.07850e-06
 Reference value :  4.08365e-06
 Reference value :  4.08899e-06
 Reference value :  4.09714e-06
 Reference value :  4.10392e-06
 Reference value :  4.11164e-06
 Reference value :  4.12077e-06
 Reference value :  4.13598e-06
 Reference value :  4.15740e-06
 Reference value :  4.18983e-06
 Reference value :  4.24150e-06
 Reference value :  4.25010e-06
 Reference value :  4.25011e-06
 Reference value :  4.25013e-06
 Reference value :  4.25017e-06
 Reference value :  4.25020e-06
 Reference value :  4.25020e-06
 Reference value :  4.25020e-06
 Reference value :  4.25020e-06
 Reference value :  4.25021e-06
 Reference value :  4.25022e-06
 Reference value :  4.25023e-06
 Reference value :  4.25027e-06
 Reference value :  4.25033e-06
 Reference value :  4.25042e-06
 Reference value :  4.25058e-06
 Reference value :  4.25077e-06
 Reference value :  4.25109e-06
 Reference value :  4.25172e-06
 Reference value :  4.25234e-06
 Reference value :  4.25304e-06
 Reference value :  4.25378e-06
 Reference value :  4.25472e-06
 Reference value :  4.25551e-06
 Reference value :  4.25641e-06
 Reference value :  4.25730e-06
 Reference value :  4.25824e-06
 Reference value :  4.25980e-06
 Reference value :  4.26135e-06
 Reference value :  4.26397e-06
 Reference value :  4.26727e-06
 Reference value :  4.27242e-06
 Reference value :  4.28272e-06
 Reference value :  4.30333e-06
 Reference value :  4.34455e-06
 Reference value :  4.42698e-06
 Reference value :  4.50000e-06
 Reference value :  4.50001e-06
 Reference value :  4.50003e-06
 Reference value :  4.50007e-06
 Reference value :  4.50010e-06
 Reference value :  4.50010e-06
 Reference value :  4.50010e-06
 Reference value :  4.50010e-06
 Reference value :  4.50011e-06
 Reference value :  4.50012e-06
 Reference value :  4.50013e-06
 Reference value :  4.50017e-06
 Reference value :  4.50023e-06
 Reference value :  4.50036e-06
 Reference value :  4.50062e-06
 Reference value :  4.50109e-06
 Reference value :  4.50174e-06
 Reference value :  4.50246e-06
 Reference value :  4.50308e-06
 Reference value :  4.50385e-06
 Reference value :  4.50481e-06
 Reference value :  4.50576e-06
 Reference value :  4.50670e-06
 Reference value :  4.50793e-06
 Reference value :  4.50934e-06
 Reference value :  4.51104e-06
 Reference value :  4.51238e-06
 Reference value :  4.51382e-06
 Reference value :  4.51525e-06
 Reference value :  4.51696e-06
 Reference value :  4.51876e-06
 Reference value :  4.52204e-06
 Reference value :  4.52682e-06
 Reference value :  4.53572e-06
 Reference value :  4.55253e-06
 Reference value :  4.58207e-06
 Reference value :  4.64114e-06
 Reference value :  4.75010e-06
 Reference value :  4.75011e-06
 Reference value :  4.75013e-06
 Reference value :  4.75017e-06
 Reference value :  4.75020e-06
 Reference value :  4.75020e-06
 Reference value :  4.75020e-06
 Reference value :  4.75020e-06
 Reference value :  4.75021e-06
 Reference value :  4.75022e-06
 Reference value :  4.75023e-06
 Reference value :  4.75027e-06
 Reference value :  4.75033e-06
 Reference value :  4.75042e-06
 Reference value :  4.75058e-06
 Reference value :  4.75077e-06
 Reference value :  4.75108e-06
 Reference value :  4.75171e-06
 Reference value :  4.75233e-06
 Reference value :  4.75303e-06
 Reference value :  4.75377e-06
 Reference value :  4.75471e-06
 Reference value :  4.75554e-06
 Reference value :  4.75647e-06
 Reference value :  4.75729e-06
 Reference value :  4.75818e-06
 Reference value :  4.75921e-06
 Reference value :  4.76034e-06
 Reference value :  4.76176e-06
 Reference value :  4.76323e-06
 Reference value :  4.76561e-06
 Reference value :  4.76813e-06
 Reference value :  4.77190e-06
 Reference value :  4.77708e-06
 Reference value :  4.78744e-06
 Reference value :  4.80817e-06
 Reference value :  4.84963e-06
 Reference value :  4.93255e-06
 Reference value :  5.00000e-06
 Reference value :  5.00001e-06
 Reference value :  5.00003e-06
 Reference value :  5.00007e-06
 Reference value :  5.00010e-06
 Reference value :  5.00010e-06
 Reference value :  5.00010e-06
 Reference value :  5.00010e-06
 Reference value :  5.00011e-06
 Reference value :  5.00012e-06
 Reference value :  5.00013e-06
 Reference value :  5.00017e-06
 Reference value :  5.00023e-06
 Reference value :  5.00036e-06
 Reference value :  5.00062e-06
 Reference value :  5.00109e-06
 Reference value :  5.00174e-06
 Reference value :  5.00246e-06
 Reference value :  5.00309e-06
 Reference value :  5.00386e-06
 Reference value :  5.00471e-06
 Reference value :  5.00560e-06
 Reference value :  5.00637e-06
 Reference value :  5.00718e-06
 Reference value :  5.00789e-06
 Reference value :  5.00869e-06
 Reference value :  5.00966e-06
 Reference value :  5.01075e-06
 Reference value :  5.01294e-06
 Reference value :  5.01511e-06
 Reference value :  5.01737e-06
 Reference value :  5.01946e-06
 Reference value :  5.02159e-06
 Reference value :  5.02392e-06
 Reference value :  5.02612e-06
 Reference value :  5.02781e-06
 Reference value :  5.02940e-06
 Reference value :  5.03093e-06
 Reference value :  5.03254e-06
 Reference value :  5.03436e-06
 Reference value :  5.03712e-06
 Reference value :  5.04001e-06
 Reference value :  5.04380e-06
 Reference value :  5.04854e-06
 Reference value :  5.05290e-06
 Reference value :  5.05662e-06
 Reference value :  5.06017e-06
 Reference value :  5.06381e-06
 Reference value :  5.06791e-06
 Reference value :  5.07409e-06
 Reference value :  5.08213e-06
 Reference value :  5.09557e-06
 Reference value :  5.11584e-06
 Reference value :  5.15354e-06
 Reference value :  5.19700e-06
 Reference value :  5.25010e-06
 Reference value :  5.25011e-06
 Reference value :  5.25013e-06
 Reference value :  5.25017e-06
 Reference value :  5.25020e-06
 Reference value :  5.25020e-06
 Reference value :  5.25020e-06
 Reference value :  5.25020e-06
 Reference value :  5.25021e-06
 Reference value :  5.25022e-06
 Reference value :  5.25023e-06
 Reference value :  5.25027e-06
 Reference value :  5.25033e-06
 Reference value :  5.25042e-06
 Reference value :  5.25058e-06
 Reference value :  5.25076e-06
 Reference value :  5.25108e-06
 Reference value :  5.25172e-06
 Reference value :  5.25234e-06
 Reference value :  5.25305e-06
 Reference value :  5.25379e-06
 Reference value :  5.25473e-06
 Reference value :  5.25576e-06
 Reference value :  5.25651e-06
 Reference value :  5.25739e-06
 Reference value :  5.25836e-06
 Reference value :  5.25949e-06
 Reference value :  5.26069e-06
 Reference value :  5.26309e-06
 Reference value :  5.26619e-06
 Reference value :  5.27069e-06
 Reference value :  5.27462e-06
 Reference value :  5.27897e-06
 Reference value :  5.28355e-06
 Reference value :  5.28866e-06
 Reference value :  5.29889e-06
 Reference value :  5.31294e-06
 Reference value :  5.33884e-06
 Reference value :  5.36457e-06
 Reference value :  5.38506e-06
 Reference value :  5.41111e-06
 Reference value :  5.45718e-06
 Reference value :  5.50000e-06
 Reference value :  5.50001e-06
 Reference value :  5.50003e-06
 Reference value :  5.50007e-06
 Reference value :  5.50010e-06
 Reference value :  5.50010e-06
 Reference value :  5.50010e-06
 Reference value :  5.50010e-06
 Reference value :  5.50011e-06
 Reference value :  5.50012e-06
 Reference value :  5.50013e-06
 Reference value :  5.50017e-06
 Reference value :  5.50023e-06
 Reference value :  5.50036e-06
 Reference value :  5.50062e-06
 Reference value :  5.50109e-06
 Reference value :  5.50174e-06
 Reference value :  5.50246e-06
 Reference value :  5.50308e-06
 Reference value :  5.50385e-06
 Reference value :  5.50481e-06
 Reference value :  5.50576e-06
 Reference value :  5.50670e-06
 Reference value :  5.50777e-06
 Reference value :  5.50921e-06
 Reference value :  5.51077e-06
 Reference value :  5.51230e-06
 Reference value :  5.51365e-06
 Reference value :  5.51516e-06
 Reference value :  5.51686e-06
 Reference value :  5.51860e-06
 Reference value :  5.52210e-06
 Reference value :  5.52700e-06
 Reference value :  5.53675e-06
 Reference value :  5.55410e-06
 Reference value :  5.58538e-06
 Reference value :  5.64601e-06
 Reference value :  5.75010e-06
 Reference value :  5.75011e-06
 Reference value :  5.75013e-06
 Reference value :  5.75017e-06
 Reference value :  5.75020e-06
 Reference value :  5.75020e-06
 Reference value :  5.75020e-06
 Reference value :  5.75020e-06
 Reference value :  5.75021e-06
 Reference value :  5.75022e-06
 Reference value :  5.75023e-06
 Reference value :  5.75027e-06
 Reference value :  5.75033e-06
 Reference value :  5.75041e-06
 Reference value :  5.75058e-06
 Reference value :  5.75077e-06
 Reference value :  5.75108e-06
 Reference value :  5.75170e-06
 Reference value :  5.75233e-06
 Reference value :  5.75303e-06
 Reference value :  5.75376e-06
 Reference value :  5.75470e-06
 Reference value :  5.75573e-06
 Reference value :  5.75648e-06
 Reference value :  5.75736e-06
 Reference value :  5.75836e-06
 Reference value :  5.75928e-06
 Reference value :  5.76040e-06
 Reference value :  5.76162e-06
 Reference value :  5.76311e-06
 Reference value :  5.76466e-06
 Reference value :  5.76686e-06
 Reference value :  5.76933e-06
 Reference value :  5.77353e-06
 Reference value :  5.78113e-06
 Reference value :  5.79276e-06
 Reference value :  5.81420e-06
 Reference value :  5.84948e-06
 Reference value :  5.91041e-06
 Reference value :  6.00000e-06
 Reference value :  6.00001e-06
 Reference value :  6.00003e-06
 Reference value :  6.00007e-06
 Reference value :  6.00010e-06
 Reference value :  6.00010e-06
 Reference value :  6.00010e-06
 Reference value :  6.00010e-06
 Reference value :  6.00011e-06
 Reference value :  6.00012e-06
 Reference value :  6.00013e-06
 Reference value :  6.00017e-06
 Reference value :  6.00023e-06
 Reference value :  6.00036e-06
 Reference value :  6.00062e-06
 Reference value :  6.00109e-06
 Reference value :  6.00174e-06
 Reference value :  6.00246e-06
 Reference value :  6.00309e-06
 Reference value :  6.00385e-06
 Reference value :  6.00482e-06
 Reference value :  6.00571e-06
 Reference value :  6.00666e-06
 Reference value :  6.00761e-06
 Reference value :  6.00855e-06
 Reference value :  6.00957e-06
 Reference value :  6.01080e-06
 Reference value :  6.01201e-06
 Reference value :  6.01443e-06
 Reference value :  6.01700e-06
 Reference value :  6.01891e-06
 Reference value :  6.02104e-06
 Reference value :  6.02328e-06
 Reference value :  6.02589e-06
 Reference value :  6.02796e-06
 Reference value :  6.02948e-06
 Reference value :  6.03112e-06
 Reference value :  6.03273e-06
 Reference value :  6.03388e-06
 Reference value :  6.03522e-06
 Reference value :  6.03662e-06
 Reference value :  6.03833e-06
 Reference value :  6.04096e-06
 Reference value :  6.04447e-06
 Reference value :  6.05028e-06
 Reference value :  6.05826e-06
 Reference value :  6.06804e-06
 Reference value :  6.08437e-06
 Reference value :  6.11701e-06
 Reference value :  6.17144e-06
 Reference value :  6.23745e-06
 Reference value :  6.25010e-06
 Reference value :  6.25011e-06
 Reference value :  6.25013e-06
 Reference value :  6.25017e-06
 Reference value :  6.25020e-06
 Reference value :  6.25020e-06
 Reference value :  6.25020e-06
 Reference value :  6.25020e-06
 Reference value :  6.25021e-06
 Reference value :  6.25022e-06
 Reference value :  6.25023e-06
 Reference value :  6.25027e-06
 Reference value :  6.25033e-06
 Reference value :  6.25041e-06
 Reference value :  6.25058e-06
 Reference value :  6.25076e-06
 Reference value :  6.25106e-06
 Reference value :  6.25165e-06
 Reference value :  6.25229e-06
 Reference value :  6.25299e-06
 Reference value :  6.25371e-06
 Reference value :  6.25464e-06
 Reference value :  6.25565e-06
 Reference value :  6.25692e-06
 Reference value :  6.25794e-06
 Reference value :  6.25903e-06
 Reference value :  6.26019e-06
 Reference value :  6.26202e-06
 Reference value :  6.26374e-06
 Reference value :  6.26719e-06
 Reference value :  6.27210e-06
 Reference value :  6.28061e-06
 Reference value :  6.29670e-06
 Reference value :  6.32382e-06
 Reference value :  6.37804e-06
 Reference value :  6.48649e-06
 Reference value :  6.50000e-06
 Reference value :  6.50001e-06
 Reference value :  6.50003e-06
 Reference value :  6.50007e-06
 Reference value :  6.50010e-06
 Reference value :  6.50010e-06
 Reference value :  6.50010e-06
 Reference value :  6.50010e-06
 Reference value :  6.50011e-06
 Reference value :  6.50012e-06
 Reference value :  6.50013e-06
 Reference value :  6.50017e-06
 Reference value :  6.50023e-06
 Reference value :  6.50036e-06
 Reference value :  6.50062e-06
 Reference value :  6.50109e-06
 Reference value :  6.50174e-06
 Reference value :  6.50246e-06
 Reference value :  6.50308e-06
 Reference value :  6.50385e-06
 Reference value :  6.50480e-06
 Reference value :  6.50576e-06
 Reference value :  6.50669e-06
 Reference value :  6.50771e-06
 Reference value :  6.50880e-06
 Reference value :  6.51047e-06
 Reference value :  6.51220e-06
 Reference value :  6.51353e-06
 Reference value :  6.51509e-06
 Reference value :  6.51666e-06
 Reference value :  6.51842e-06
 Reference value :  6.52193e-06
 Reference value :  6.52607e-06
 Reference value :  6.53434e-06
 Reference value :  6.55089e-06
 Reference value :  6.58398e-06
 Reference value :  6.65016e-06
 Reference value :  6.75010e-06
 Reference value :  6.75011e-06
 Reference value :  6.75013e-06
 Reference value :  6.75017e-06
 Reference value :  6.75020e-06
 Reference value :  6.75020e-06
 Reference value :  6.75020e-06
 Reference value :  6.75020e-06
 Reference value :  6.75021e-06
 Reference value :  6.75022e-06
 Reference value :  6.75023e-06
 Reference value :  6.75027e-06
 Reference value :  6.75033e-06
 Reference value :  6.75041e-06
 Reference value :  6.75058e-06
 Reference value :  6.75080e-06
 Reference value :  6.75107e-06
 Reference value :  6.75163e-06
 Reference value :  6.75225e-06
 Reference value :  6.75292e-06
 Reference value :  6.75364e-06
 Reference value :  6.75457e-06
 Reference value :  6.75558e-06
 Reference value :  6.75681e-06
 Reference value :  6.75778e-06
 Reference value :  6.75882e-06
 Reference value :  6.75985e-06
 Reference value :  6.76092e-06
 Reference value :  6.76215e-06
 Reference value :  6.76460e-06
 Reference value :  6.76910e-06
 Reference value :  6.77587e-06
 Reference value :  6.78942e-06
 Reference value :  6.81651e-06
 Reference value :  6.87069e-06
 Reference value :  6.97905e-06
 Reference value :  7.00000e-06
 Reference value :  7.00001e-06
 Reference value :  7.00003e-06
 Reference value :  7.00007e-06
 Reference value :  7.00010e-06
 Reference value :  7.00010e-06
 Reference value :  7.00010e-06
 Reference value :  7.00010e-06
 Reference value :  7.00011e-06
 Reference value :  7.00012e-06
 Reference value :  7.00013e-06
 Reference value :  7.00017e-06
 Reference value :  7.00023e-06
 Reference value :  7.00036e-06
 Reference value :  7.00062e-06
 Reference value :  7.00109e-06
 Reference value :  7.00174e-06
 Reference value :  7.00246e-06
 Reference value :  7.00308e-06
 Reference value :  7.00385e-06
 Reference value :  7.00481e-06
 Reference value :  7.00571e-06
 Reference value :  7.00665e-06
 Reference value :  7.00742e-06
 Reference value :  7.00831e-06
 Reference value :  7.00920e-06
 Reference value :  7.01039e-06
 Reference value :  7.01181e-06
 Reference value :  7.01453e-06
 Reference value :  7.01733e-06
 Reference value :  7.02076e-06
 Reference value :  7.02368e-06
 Reference value :  7.02673e-06
 Reference value :  7.02897e-06
 Reference value :  7.03107e-06
 Reference value :  7.03304e-06
 Reference value :  7.03512e-06
 Reference value :  7.03755e-06
 Reference value :  7.04083e-06
 Reference value :  7.04521e-06
 Reference value :  7.05217e-06
 Reference value :  7.06352e-06
 Reference value :  7.07977e-06
 Reference value :  7.10740e-06
 Reference value :  7.14558e-06
 Reference value :  7.20352e-06
 Reference value :  7.25010e-06
 Reference value :  7.25011e-06
 Reference value :  7.25013e-06
 Reference value :  7.25017e-06
 Reference value :  7.25020e-06
 Reference value :  7.25020e-06
 Reference value :  7.25020e-06
 Reference value :  7.25020e-06
 Reference value :  7.25021e-06
 Reference value :  7.25022e-06
 Reference value :  7.25023e-06
 Reference value :  7.25027e-06
 Reference value :  7.25033e-06
 Reference value :  7.25042e-06
 Reference value :  7.25059e-06
 Reference value :  7.25077e-06
 Reference value :  7.25107e-06
 Reference value :  7.25167e-06
 Reference value :  7.25229e-06
 Reference value :  7.25299e-06
 Reference value :  7.25372e-06
 Reference value :  7.25465e-06
 Reference value :  7.25566e-06
 Reference value :  7.25661e-06
 Reference value :  7.25783e-06
 Reference value :  7.25894e-06
 Reference value :  7.26015e-06
 Reference value :  7.26190e-06
 Reference value :  7.26418e-06
 Reference value :  7.26813e-06
 Reference value :  7.27392e-06
 Reference value :  7.28550e-06
 Reference value :  7.30655e-06
 Reference value :  7.34866e-06
 Reference value :  7.43287e-06
 Reference value :  7.50000e-06
 Reference value :  7.50001e-06
 Reference value :  7.50003e-06
 Reference value :  7.50007e-06
 Reference value :  7.50010e-06
 Reference value :  7.50010e-06
 Reference value :  7.50010e-06
 Reference value :  7.50010e-06
 Reference value :  7.50011e-06
 Reference value :  7.50012e-06
 Reference value :  7.50013e-06
 Reference value :  7.50017e-06
 Reference value :  7.50023e-06
 Reference value :  7.50036e-06
 Reference value :  7.50062e-06
 Reference value :  7.50109e-06
 Reference value :  7.50171e-06
 Reference value :  7.50245e-06
 Reference value :  7.50308e-06
 Reference value :  7.50384e-06
 Reference value :  7.50479e-06
 Reference value :  7.50576e-06
 Reference value :  7.50668e-06
 Reference value :  7.50785e-06
 Reference value :  7.50906e-06
 Reference value :  7.51091e-06
 Reference value :  7.51292e-06
 Reference value :  7.51464e-06
 Reference value :  7.51644e-06
 Reference value :  7.51877e-06
 Reference value :  7.52117e-06
 Reference value :  7.52527e-06
 Reference value :  7.53092e-06
 Reference value :  7.54031e-06
 Reference value :  7.55645e-06
 Reference value :  7.58222e-06
 Reference value :  7.63021e-06
 Reference value :  7.71664e-06
 Reference value :  7.75010e-06
 Reference value :  7.75011e-06
 Reference value :  7.75013e-06
 Reference value :  7.75017e-06
 Reference value :  7.75020e-06
 Reference value :  7.75020e-06
 Reference value :  7.75020e-06
 Reference value :  7.75020e-06
 Reference value :  7.75021e-06
 Reference value :  7.75022e-06
 Reference value :  7.75023e-06
 Reference value :  7.75027e-06
 Reference value :  7.75033e-06
 Reference value :  7.75042e-06
 Reference value :  7.75059e-06
 Reference value :  7.75082e-06
 Reference value :  7.75109e-06
 Reference value :  7.75165e-06
 Reference value :  7.75226e-06
 Reference value :  7.75292e-06
 Reference value :  7.75365e-06
 Reference value :  7.75457e-06
 Reference value :  7.75558e-06
 Reference value :  7.75656e-06
 Reference value :  7.75762e-06
 Reference value :  7.75857e-06
 Reference value :  7.75956e-06
 Reference value :  7.76063e-06
 Reference value :  7.76188e-06
 Reference value :  7.76436e-06
 Reference value :  7.76851e-06
 Reference value :  7.77494e-06
 Reference value :  7.78779e-06
 Reference value :  7.81350e-06
 Reference value :  7.86491e-06
 Reference value :  7.96774e-06
 Reference value :  8.00000e-06
 Reference value :  8.00001e-06
 Reference value :  8.00003e-06
 Reference value :  8.00007e-06
 Reference value :  8.00010e-06
 Reference value :  8.00010e-06
 Reference value :  8.00010e-06
 Reference value :  8.00010e-06
 Reference value :  8.00011e-06
 Reference value :  8.00012e-06
 Reference value :  8.00013e-06
 Reference value :  8.00017e-06
 Reference value :  8.00023e-06
 Reference value :  8.00036e-06
 Reference value :  8.00062e-06
 Reference value :  8.00109e-06
 Reference value :  8.00171e-06
 Reference value :  8.00245e-06
 Reference value :  8.00308e-06
 Reference value :  8.00385e-06
 Reference value :  8.00482e-06
 Reference value :  8.00575e-06
 Reference value :  8.00670e-06
 Reference value :  8.00757e-06
 Reference value :  8.00851e-06
 Reference value :  8.00955e-06
 Reference value :  8.01070e-06
 Reference value :  8.01244e-06
 Reference value :  8.01396e-06
 Reference value :  8.01557e-06
 Reference value :  8.01723e-06
 Reference value :  8.01904e-06
 Reference value :  8.02267e-06
 Reference value :  8.02810e-06
 Reference value :  8.03695e-06
 Reference value :  8.05466e-06
 Reference value :  8.09006e-06
 Reference value :  8.16088e-06
 Reference value :  8.25010e-06
 Reference value :  8.25011e-06
 Reference value :  8.25013e-06
 Reference value :  8.25017e-06
 Reference value :  8.25020e-06
 Reference value :  8.25020e-06
 Reference value :  8.25020e-06
 Reference value :  8.25020e-06
 Reference value :  8.25021e-06
 Reference value :  8.25022e-06
 Reference value :  8.25023e-06
 Reference value :  8.25027e-06
 Reference value :  8.25033e-06
 Reference value :  8.25047e-06
 Reference value :  8.25064e-06
 Reference value :  8.25085e-06
 Reference value :  8.25127e-06
 Reference value :  8.25193e-06
 Reference value :  8.25261e-06
 Reference value :  8.25331e-06
 Reference value :  8.25422e-06
 Reference value :  8.25545e-06
 Reference value :  8.25660e-06
 Reference value :  8.25789e-06
 Reference value :  8.25953e-06
 Reference value :  8.26158e-06
 Reference value :  8.26424e-06
 Reference value :  8.26765e-06
 Reference value :  8.27258e-06
 Reference value :  8.28244e-06
 Reference value :  8.29640e-06
 Reference value :  8.32434e-06
 Reference value :  8.38021e-06
 Reference value :  8.48671e-06
 Reference value :  8.50000e-06
No. of Data Rows : 1406
ngspice-44 done
