
Note: Compatibility modes selected: hs a


Circuit: ** sch_path: /home/ece/cace/sar-adc-using-sky130-pdk/runs/run_2025-09-12_03-10-40/parameters/dnl/run_0/sar_output_dnl.sch

option SCALE: Scale is set to 1e-06 for instance and model parameters
option SCALE: Scale is set to 1e-06 for instance and model parameters
option SCALE: Scale is set to 1e-06 for instance and model parameters
option SCALE: Scale is set to 1e-06 for instance and model parameters
Doing analysis at TEMP = 27.000000 and TNOM = 27.000000

Using KLU as Direct Linear Solver
Operating point simulation skipped by 'uic',
  now using transient initial conditions.
 Reference value :  1.00000e-12
 Reference value :  1.02772e-12
 Reference value :  1.08316e-12
 Reference value :  1.19404e-12
 Reference value :  1.33842e-12
 Reference value :  1.62719e-12
 Reference value :  2.20473e-12
 Reference value :  3.04012e-12
 Reference value :  3.94684e-12
 Reference value :  5.17006e-12
 Reference value :  6.92313e-12
 Reference value :  1.02727e-11
 Reference value :  1.42656e-11
 Reference value :  2.10071e-11
 Reference value :  2.79317e-11
 Reference value :  3.69725e-11
 Reference value :  4.85522e-11
 Reference value :  6.48730e-11
 Reference value :  8.61619e-11
 Reference value :  1.00000e-10
 Reference value :  1.01163e-10
 Reference value :  1.03489e-10
 Reference value :  1.08140e-10
 Reference value :  1.17443e-10
 Reference value :  1.36049e-10
 Reference value :  1.73261e-10
 Reference value :  2.47684e-10
 Reference value :  3.96531e-10
 Reference value :  5.56133e-10
 Reference value :  8.15614e-10
 Reference value :  1.15940e-09
 Reference value :  1.56440e-09
 Reference value :  2.20988e-09
 Reference value :  2.87611e-09
 Reference value :  3.83410e-09
 Reference value :  4.66558e-09
 Reference value :  5.55373e-09
 Reference value :  6.62650e-09
 Reference value :  7.59525e-09
 Reference value :  8.85757e-09
 Reference value :  9.97321e-09
 Reference value :  1.08590e-08
 Reference value :  1.18184e-08
 Reference value :  1.27722e-08
 Reference value :  1.38963e-08
 Reference value :  1.59699e-08
 Reference value :  1.87465e-08
 Reference value :  2.25423e-08
 Reference value :  2.67210e-08
 Reference value :  3.08263e-08
 Reference value :  3.45527e-08
 Reference value :  3.84942e-08
 Reference value :  4.27225e-08
 Reference value :  5.11790e-08
 Reference value :  6.44929e-08
 Reference value :  8.65604e-08
 Reference value :  1.30695e-07
 Reference value :  1.90433e-07
 Reference value :  2.50100e-07
 Reference value :  2.50110e-07
 Reference value :  2.50130e-07
 Reference value :  2.50170e-07
 Reference value :  2.50200e-07
 Reference value :  2.50201e-07
 Reference value :  2.50202e-07
 Reference value :  2.50204e-07
 Reference value :  2.50208e-07
 Reference value :  2.50216e-07
 Reference value :  2.50233e-07
 Reference value :  2.50266e-07
 Reference value :  2.50332e-07
 Reference value :  2.50438e-07
 Reference value :  2.50611e-07
 Reference value :  2.50808e-07
 Reference value :  2.51135e-07
 Reference value :  2.51582e-07
 Reference value :  2.52133e-07
 Reference value :  2.52731e-07
 Reference value :  2.53379e-07
 Reference value :  2.54229e-07
 Reference value :  2.55159e-07
 Reference value :  2.56089e-07
 Reference value :  2.56989e-07
 Reference value :  2.57972e-07
 Reference value :  2.58946e-07
 Reference value :  2.60499e-07
 Reference value :  2.62420e-07
 Reference value :  2.64909e-07
 Reference value :  2.68768e-07
 Reference value :  2.73509e-07
 Reference value :  2.82991e-07
 Reference value :  3.00571e-07
 Reference value :  3.29466e-07
 Reference value :  3.86688e-07
 Reference value :  5.00000e-07
 Reference value :  5.00010e-07
 Reference value :  5.00030e-07
 Reference value :  5.00070e-07
 Reference value :  5.00100e-07
 Reference value :  5.00104e-07
 Reference value :  5.00113e-07
 Reference value :  5.00130e-07
 Reference value :  5.00165e-07
 Reference value :  5.00234e-07
 Reference value :  5.00372e-07
 Reference value :  5.00573e-07
 Reference value :  5.00954e-07
 Reference value :  5.01538e-07
 Reference value :  5.02096e-07
 Reference value :  5.02766e-07
 Reference value :  5.03533e-07
 Reference value :  5.04331e-07
 Reference value :  5.05155e-07
 Reference value :  5.05969e-07
 Reference value :  5.07062e-07
 Reference value :  5.08130e-07
 Reference value :  5.09940e-07
 Reference value :  5.12181e-07
 Reference value :  5.14397e-07
 Reference value :  5.16701e-07
 Reference value :  5.18870e-07
 Reference value :  5.21551e-07
 Reference value :  5.24224e-07
 Reference value :  5.29330e-07
 Reference value :  5.35742e-07
 Reference value :  5.46810e-07
 Reference value :  5.66365e-07
 Reference value :  5.96605e-07
 Reference value :  6.57086e-07
 Reference value :  7.50100e-07
 Reference value :  7.50110e-07
 Reference value :  7.50130e-07
 Reference value :  7.50170e-07
 Reference value :  7.50200e-07
 Reference value :  7.50201e-07
 Reference value :  7.50202e-07
 Reference value :  7.50205e-07
 Reference value :  7.50211e-07
 Reference value :  7.50223e-07
 Reference value :  7.50247e-07
 Reference value :  7.50295e-07
 Reference value :  7.50390e-07
 Reference value :  7.50581e-07
 Reference value :  7.50959e-07
 Reference value :  7.51572e-07
 Reference value :  7.52191e-07
 Reference value :  7.52840e-07
 Reference value :  7.53541e-07
 Reference value :  7.54448e-07
 Reference value :  7.55180e-07
 Reference value :  7.56013e-07
 Reference value :  7.56742e-07
 Reference value :  7.57547e-07
 Reference value :  7.58563e-07
 Reference value :  7.59653e-07
 Reference value :  7.61835e-07
 Reference value :  7.64160e-07
 Reference value :  7.68223e-07
 Reference value :  7.72598e-07
 Reference value :  7.81348e-07
 Reference value :  7.98847e-07
 Reference value :  8.31747e-07
 Reference value :  8.97547e-07
 Reference value :  1.00000e-06
 Reference value :  1.00001e-06
 Reference value :  1.00003e-06
 Reference value :  1.00007e-06
 Reference value :  1.00010e-06
 Reference value :  1.00010e-06
 Reference value :  1.00011e-06
 Reference value :  1.00013e-06
 Reference value :  1.00016e-06
 Reference value :  1.00023e-06
 Reference value :  1.00037e-06
 Reference value :  1.00057e-06
 Reference value :  1.00095e-06
 Reference value :  1.00154e-06
 Reference value :  1.00209e-06
 Reference value :  1.00276e-06
 Reference value :  1.00353e-06
 Reference value :  1.00440e-06
 Reference value :  1.00519e-06
 Reference value :  1.00606e-06
 Reference value :  1.00684e-06
 Reference value :  1.00759e-06
 Reference value :  1.00846e-06
 Reference value :  1.00938e-06
 Reference value :  1.01056e-06
 Reference value :  1.01241e-06
 Reference value :  1.01476e-06
 Reference value :  1.01829e-06
 Reference value :  1.02070e-06
 Reference value :  1.02282e-06
 Reference value :  1.02485e-06
 Reference value :  1.02663e-06
 Reference value :  1.02849e-06
 Reference value :  1.03079e-06
 Reference value :  1.03330e-06
 Reference value :  1.03634e-06
 Reference value :  1.04062e-06
 Reference value :  1.04637e-06
 Reference value :  1.05164e-06
 Reference value :  1.05557e-06
 Reference value :  1.06036e-06
 Reference value :  1.06510e-06
 Reference value :  1.06883e-06
 Reference value :  1.07287e-06
 Reference value :  1.07667e-06
 Reference value :  1.08109e-06
 Reference value :  1.08792e-06
 Reference value :  1.09603e-06
 Reference value :  1.10322e-06
 Reference value :  1.11216e-06
 Reference value :  1.12108e-06
 Reference value :  1.13767e-06
 Reference value :  1.16175e-06
 Reference value :  1.20368e-06
 Reference value :  1.25010e-06
 Reference value :  1.25011e-06
 Reference value :  1.25013e-06
 Reference value :  1.25017e-06
 Reference value :  1.25020e-06
 Reference value :  1.25020e-06
 Reference value :  1.25020e-06
 Reference value :  1.25021e-06
 Reference value :  1.25021e-06
 Reference value :  1.25022e-06
 Reference value :  1.25025e-06
 Reference value :  1.25029e-06
 Reference value :  1.25039e-06
 Reference value :  1.25057e-06
 Reference value :  1.25090e-06
 Reference value :  1.25154e-06
 Reference value :  1.25213e-06
 Reference value :  1.25276e-06
 Reference value :  1.25347e-06
 Reference value :  1.25449e-06
 Reference value :  1.25523e-06
 Reference value :  1.25604e-06
 Reference value :  1.25702e-06
 Reference value :  1.25804e-06
 Reference value :  1.25914e-06
 Reference value :  1.26134e-06
 Reference value :  1.26357e-06
 Reference value :  1.26720e-06
 Reference value :  1.27142e-06
 Reference value :  1.27984e-06
 Reference value :  1.29670e-06
 Reference value :  1.32463e-06
 Reference value :  1.38050e-06
 Reference value :  1.49224e-06
 Reference value :  1.50000e-06
 Reference value :  1.50001e-06
 Reference value :  1.50003e-06
 Reference value :  1.50007e-06
 Reference value :  1.50010e-06
 Reference value :  1.50010e-06
 Reference value :  1.50011e-06
 Reference value :  1.50013e-06
 Reference value :  1.50016e-06
 Reference value :  1.50023e-06
 Reference value :  1.50037e-06
 Reference value :  1.50057e-06
 Reference value :  1.50093e-06
 Reference value :  1.50144e-06
 Reference value :  1.50196e-06
 Reference value :  1.50257e-06
 Reference value :  1.50328e-06
 Reference value :  1.50403e-06
 Reference value :  1.50495e-06
 Reference value :  1.50586e-06
 Reference value :  1.50686e-06
 Reference value :  1.50811e-06
 Reference value :  1.50936e-06
 Reference value :  1.51067e-06
 Reference value :  1.51200e-06
 Reference value :  1.51365e-06
 Reference value :  1.51502e-06
 Reference value :  1.51662e-06
 Reference value :  1.51816e-06
 Reference value :  1.51995e-06
 Reference value :  1.52353e-06
 Reference value :  1.52952e-06
 Reference value :  1.53971e-06
 Reference value :  1.56009e-06
 Reference value :  1.60084e-06
 Reference value :  1.68235e-06
 Reference value :  1.75010e-06
 Reference value :  1.75011e-06
 Reference value :  1.75013e-06
 Reference value :  1.75017e-06
 Reference value :  1.75020e-06
 Reference value :  1.75020e-06
 Reference value :  1.75020e-06
 Reference value :  1.75021e-06
 Reference value :  1.75021e-06
 Reference value :  1.75022e-06
 Reference value :  1.75025e-06
 Reference value :  1.75029e-06
 Reference value :  1.75039e-06
 Reference value :  1.75057e-06
 Reference value :  1.75090e-06
 Reference value :  1.75156e-06
 Reference value :  1.75215e-06
 Reference value :  1.75278e-06
 Reference value :  1.75348e-06
 Reference value :  1.75439e-06
 Reference value :  1.75514e-06
 Reference value :  1.75599e-06
 Reference value :  1.75671e-06
 Reference value :  1.75752e-06
 Reference value :  1.75855e-06
 Reference value :  1.75965e-06
 Reference value :  1.76078e-06
 Reference value :  1.76247e-06
 Reference value :  1.76454e-06
 Reference value :  1.76717e-06
 Reference value :  1.77073e-06
 Reference value :  1.77526e-06
 Reference value :  1.78433e-06
 Reference value :  1.79842e-06
 Reference value :  1.82659e-06
 Reference value :  1.88295e-06
 Reference value :  1.99565e-06
 Reference value :  2.00000e-06
 Reference value :  2.00001e-06
 Reference value :  2.00003e-06
 Reference value :  2.00007e-06
 Reference value :  2.00010e-06
 Reference value :  2.00010e-06
 Reference value :  2.00011e-06
 Reference value :  2.00013e-06
 Reference value :  2.00017e-06
 Reference value :  2.00023e-06
 Reference value :  2.00037e-06
 Reference value :  2.00057e-06
 Reference value :  2.00093e-06
 Reference value :  2.00145e-06
 Reference value :  2.00198e-06
 Reference value :  2.00262e-06
 Reference value :  2.00338e-06
 Reference value :  2.00415e-06
 Reference value :  2.00498e-06
 Reference value :  2.00570e-06
 Reference value :  2.00649e-06
 Reference value :  2.00720e-06
 Reference value :  2.00804e-06
 Reference value :  2.00883e-06
 Reference value :  2.00991e-06
 Reference value :  2.01108e-06
 Reference value :  2.01313e-06
 Reference value :  2.01599e-06
 Reference value :  2.01790e-06
 Reference value :  2.02002e-06
 Reference value :  2.02197e-06
 Reference value :  2.02343e-06
 Reference value :  2.02481e-06
 Reference value :  2.02603e-06
 Reference value :  2.02740e-06
 Reference value :  2.02903e-06
 Reference value :  2.03098e-06
 Reference value :  2.03375e-06
 Reference value :  2.03717e-06
 Reference value :  2.04400e-06
 Reference value :  2.05450e-06
 Reference value :  2.07247e-06
 Reference value :  2.10414e-06
 Reference value :  2.15627e-06
 Reference value :  2.22023e-06
 Reference value :  2.25010e-06
 Reference value :  2.25011e-06
 Reference value :  2.25013e-06
 Reference value :  2.25017e-06
 Reference value :  2.25020e-06
 Reference value :  2.25020e-06
 Reference value :  2.25020e-06
 Reference value :  2.25021e-06
 Reference value :  2.25021e-06
 Reference value :  2.25022e-06
 Reference value :  2.25025e-06
 Reference value :  2.25029e-06
 Reference value :  2.25039e-06
 Reference value :  2.25058e-06
 Reference value :  2.25091e-06
 Reference value :  2.25157e-06
 Reference value :  2.25217e-06
 Reference value :  2.25281e-06
 Reference value :  2.25351e-06
 Reference value :  2.25441e-06
 Reference value :  2.25513e-06
 Reference value :  2.25595e-06
 Reference value :  2.25680e-06
 Reference value :  2.25768e-06
 Reference value :  2.25885e-06
 Reference value :  2.26068e-06
 Reference value :  2.26317e-06
 Reference value :  2.26616e-06
 Reference value :  2.27050e-06
 Reference value :  2.27688e-06
 Reference value :  2.28965e-06
 Reference value :  2.31518e-06
 Reference value :  2.36624e-06
 Reference value :  2.41924e-06
 Reference value :  2.48089e-06
 Reference value :  2.50000e-06
 Reference value :  2.50001e-06
 Reference value :  2.50003e-06
 Reference value :  2.50007e-06
 Reference value :  2.50010e-06
 Reference value :  2.50010e-06
 Reference value :  2.50011e-06
 Reference value :  2.50013e-06
 Reference value :  2.50017e-06
 Reference value :  2.50023e-06
 Reference value :  2.50037e-06
 Reference value :  2.50057e-06
 Reference value :  2.50093e-06
 Reference value :  2.50145e-06
 Reference value :  2.50198e-06
 Reference value :  2.50259e-06
 Reference value :  2.50330e-06
 Reference value :  2.50406e-06
 Reference value :  2.50498e-06
 Reference value :  2.50591e-06
 Reference value :  2.50689e-06
 Reference value :  2.50813e-06
 Reference value :  2.50934e-06
 Reference value :  2.51064e-06
 Reference value :  2.51197e-06
 Reference value :  2.51359e-06
 Reference value :  2.51494e-06
 Reference value :  2.51651e-06
 Reference value :  2.51804e-06
 Reference value :  2.51981e-06
 Reference value :  2.52335e-06
 Reference value :  2.52928e-06
 Reference value :  2.53972e-06
 Reference value :  2.56059e-06
 Reference value :  2.60234e-06
 Reference value :  2.68584e-06
 Reference value :  2.75010e-06
 Reference value :  2.75011e-06
 Reference value :  2.75013e-06
 Reference value :  2.75017e-06
 Reference value :  2.75020e-06
 Reference value :  2.75020e-06
 Reference value :  2.75020e-06
 Reference value :  2.75021e-06
 Reference value :  2.75021e-06
 Reference value :  2.75022e-06
 Reference value :  2.75025e-06
 Reference value :  2.75029e-06
 Reference value :  2.75039e-06
 Reference value :  2.75057e-06
 Reference value :  2.75090e-06
 Reference value :  2.75156e-06
 Reference value :  2.75215e-06
 Reference value :  2.75278e-06
 Reference value :  2.75349e-06
 Reference value :  2.75440e-06
 Reference value :  2.75514e-06
 Reference value :  2.75598e-06
 Reference value :  2.75670e-06
 Reference value :  2.75751e-06
 Reference value :  2.75854e-06
 Reference value :  2.75965e-06
 Reference value :  2.76077e-06
 Reference value :  2.76249e-06
 Reference value :  2.76449e-06
 Reference value :  2.76718e-06
 Reference value :  2.77068e-06
 Reference value :  2.77526e-06
 Reference value :  2.78442e-06
 Reference value :  2.79765e-06
 Reference value :  2.82411e-06
 Reference value :  2.87703e-06
 Reference value :  2.98287e-06
 Reference value :  3.00000e-06
 Reference value :  3.00001e-06
 Reference value :  3.00003e-06
 Reference value :  3.00007e-06
 Reference value :  3.00010e-06
 Reference value :  3.00010e-06
 Reference value :  3.00011e-06
 Reference value :  3.00013e-06
 Reference value :  3.00017e-06
 Reference value :  3.00023e-06
 Reference value :  3.00037e-06
 Reference value :  3.00057e-06
 Reference value :  3.00093e-06
 Reference value :  3.00145e-06
 Reference value :  3.00198e-06
 Reference value :  3.00262e-06
 Reference value :  3.00338e-06
 Reference value :  3.00415e-06
 Reference value :  3.00498e-06
 Reference value :  3.00572e-06
 Reference value :  3.00650e-06
 Reference value :  3.00723e-06
 Reference value :  3.00806e-06
 Reference value :  3.00887e-06
 Reference value :  3.00995e-06
 Reference value :  3.01115e-06
 Reference value :  3.01296e-06
 Reference value :  3.01491e-06
 Reference value :  3.01658e-06
 Reference value :  3.01831e-06
 Reference value :  3.02019e-06
 Reference value :  3.02172e-06
 Reference value :  3.02324e-06
 Reference value :  3.02505e-06
 Reference value :  3.02677e-06
 Reference value :  3.02833e-06
 Reference value :  3.03043e-06
 Reference value :  3.03314e-06
 Reference value :  3.03595e-06
 Reference value :  3.04083e-06
 Reference value :  3.04733e-06
 Reference value :  3.05762e-06
 Reference value :  3.07420e-06
 Reference value :  3.10328e-06
 Reference value :  3.13017e-06
 Reference value :  3.15941e-06
 Reference value :  3.19323e-06
 Reference value :  3.22990e-06
 Reference value :  3.25010e-06
 Reference value :  3.25011e-06
 Reference value :  3.25013e-06
 Reference value :  3.25017e-06
 Reference value :  3.25020e-06
 Reference value :  3.25020e-06
 Reference value :  3.25020e-06
 Reference value :  3.25021e-06
 Reference value :  3.25021e-06
 Reference value :  3.25022e-06
 Reference value :  3.25025e-06
 Reference value :  3.25029e-06
 Reference value :  3.25039e-06
 Reference value :  3.25057e-06
 Reference value :  3.25090e-06
 Reference value :  3.25155e-06
 Reference value :  3.25215e-06
 Reference value :  3.25278e-06
 Reference value :  3.25349e-06
 Reference value :  3.25440e-06
 Reference value :  3.25513e-06
 Reference value :  3.25596e-06
 Reference value :  3.25681e-06
 Reference value :  3.25770e-06
 Reference value :  3.25888e-06
 Reference value :  3.26076e-06
 Reference value :  3.26321e-06
 Reference value :  3.26626e-06
 Reference value :  3.27057e-06
 Reference value :  3.27720e-06
 Reference value :  3.29046e-06
 Reference value :  3.31697e-06
 Reference value :  3.37000e-06
 Reference value :  3.47606e-06
 Reference value :  3.50000e-06
 Reference value :  3.50001e-06
 Reference value :  3.50003e-06
 Reference value :  3.50007e-06
 Reference value :  3.50010e-06
 Reference value :  3.50010e-06
 Reference value :  3.50011e-06
 Reference value :  3.50013e-06
 Reference value :  3.50016e-06
 Reference value :  3.50023e-06
 Reference value :  3.50037e-06
 Reference value :  3.50057e-06
 Reference value :  3.50093e-06
 Reference value :  3.50144e-06
 Reference value :  3.50196e-06
 Reference value :  3.50257e-06
 Reference value :  3.50328e-06
 Reference value :  3.50403e-06
 Reference value :  3.50495e-06
 Reference value :  3.50585e-06
 Reference value :  3.50684e-06
 Reference value :  3.50798e-06
 Reference value :  3.50926e-06
 Reference value :  3.51049e-06
 Reference value :  3.51175e-06
 Reference value :  3.51349e-06
 Reference value :  3.51493e-06
 Reference value :  3.51649e-06
 Reference value :  3.51806e-06
 Reference value :  3.51988e-06
 Reference value :  3.52342e-06
 Reference value :  3.52853e-06
 Reference value :  3.53876e-06
 Reference value :  3.55920e-06
 Reference value :  3.60009e-06
 Reference value :  3.68187e-06
 Reference value :  3.75010e-06
 Reference value :  3.75011e-06
 Reference value :  3.75013e-06
 Reference value :  3.75017e-06
 Reference value :  3.75020e-06
 Reference value :  3.75020e-06
 Reference value :  3.75020e-06
 Reference value :  3.75021e-06
 Reference value :  3.75021e-06
 Reference value :  3.75022e-06
 Reference value :  3.75025e-06
 Reference value :  3.75029e-06
 Reference value :  3.75039e-06
 Reference value :  3.75057e-06
 Reference value :  3.75090e-06
 Reference value :  3.75156e-06
 Reference value :  3.75215e-06
 Reference value :  3.75279e-06
 Reference value :  3.75349e-06
 Reference value :  3.75440e-06
 Reference value :  3.75514e-06
 Reference value :  3.75597e-06
 Reference value :  3.75669e-06
 Reference value :  3.75749e-06
 Reference value :  3.75852e-06
 Reference value :  3.75962e-06
 Reference value :  3.76068e-06
 Reference value :  3.76245e-06
 Reference value :  3.76422e-06
 Reference value :  3.76710e-06
 Reference value :  3.77035e-06
 Reference value :  3.77502e-06
 Reference value :  3.78354e-06
 Reference value :  3.79471e-06
 Reference value :  3.81547e-06
 Reference value :  3.85491e-06
 Reference value :  3.91900e-06
 Reference value :  4.00000e-06
 Reference value :  4.00001e-06
 Reference value :  4.00003e-06
 Reference value :  4.00007e-06
 Reference value :  4.00010e-06
 Reference value :  4.00010e-06
 Reference value :  4.00011e-06
 Reference value :  4.00013e-06
 Reference value :  4.00017e-06
 Reference value :  4.00023e-06
 Reference value :  4.00037e-06
 Reference value :  4.00057e-06
 Reference value :  4.00093e-06
 Reference value :  4.00145e-06
 Reference value :  4.00198e-06
 Reference value :  4.00262e-06
 Reference value :  4.00338e-06
 Reference value :  4.00415e-06
 Reference value :  4.00498e-06
 Reference value :  4.00570e-06
 Reference value :  4.00648e-06
 Reference value :  4.00720e-06
 Reference value :  4.00804e-06
 Reference value :  4.00886e-06
 Reference value :  4.00995e-06
 Reference value :  4.01118e-06
 Reference value :  4.01322e-06
 Reference value :  4.01459e-06
 Reference value :  4.01612e-06
 Reference value :  4.01767e-06
 Reference value :  4.01940e-06
 Reference value :  4.02101e-06
 Reference value :  4.02234e-06
 Reference value :  4.02380e-06
 Reference value :  4.02513e-06
 Reference value :  4.02662e-06
 Reference value :  4.02813e-06
 Reference value :  4.02971e-06
 Reference value :  4.03236e-06
 Reference value :  4.03532e-06
 Reference value :  4.04124e-06
 Reference value :  4.05217e-06
 Reference value :  4.06919e-06
 Reference value :  4.08721e-06
 Reference value :  4.10358e-06
 Reference value :  4.11236e-06
 Reference value :  4.12089e-06
 Reference value :  4.12994e-06
 Reference value :  4.14631e-06
 Reference value :  4.16424e-06
 Reference value :  4.18988e-06
 Reference value :  4.22508e-06
 Reference value :  4.25010e-06
 Reference value :  4.25011e-06
 Reference value :  4.25013e-06
 Reference value :  4.25017e-06
 Reference value :  4.25020e-06
 Reference value :  4.25020e-06
 Reference value :  4.25020e-06
 Reference value :  4.25021e-06
 Reference value :  4.25021e-06
 Reference value :  4.25022e-06
 Reference value :  4.25025e-06
 Reference value :  4.25029e-06
 Reference value :  4.25039e-06
 Reference value :  4.25057e-06
 Reference value :  4.25090e-06
 Reference value :  4.25155e-06
 Reference value :  4.25215e-06
 Reference value :  4.25279e-06
 Reference value :  4.25349e-06
 Reference value :  4.25440e-06
 Reference value :  4.25516e-06
 Reference value :  4.25600e-06
 Reference value :  4.25686e-06
 Reference value :  4.25776e-06
 Reference value :  4.25896e-06
 Reference value :  4.26084e-06
 Reference value :  4.26325e-06
 Reference value :  4.26639e-06
 Reference value :  4.27069e-06
 Reference value :  4.27745e-06
 Reference value :  4.29097e-06
 Reference value :  4.31749e-06
 Reference value :  4.37053e-06
 Reference value :  4.47660e-06
 Reference value :  4.50000e-06
 Reference value :  4.50001e-06
 Reference value :  4.50003e-06
 Reference value :  4.50007e-06
 Reference value :  4.50010e-06
 Reference value :  4.50010e-06
 Reference value :  4.50011e-06
 Reference value :  4.50013e-06
 Reference value :  4.50016e-06
 Reference value :  4.50023e-06
 Reference value :  4.50037e-06
 Reference value :  4.50057e-06
 Reference value :  4.50093e-06
 Reference value :  4.50143e-06
 Reference value :  4.50196e-06
 Reference value :  4.50260e-06
 Reference value :  4.50337e-06
 Reference value :  4.50412e-06
 Reference value :  4.50493e-06
 Reference value :  4.50583e-06
 Reference value :  4.50675e-06
 Reference value :  4.50786e-06
 Reference value :  4.50905e-06
 Reference value :  4.51021e-06
 Reference value :  4.51143e-06
 Reference value :  4.51309e-06
 Reference value :  4.51449e-06
 Reference value :  4.51600e-06
 Reference value :  4.51755e-06
 Reference value :  4.51934e-06
 Reference value :  4.52277e-06
 Reference value :  4.52779e-06
 Reference value :  4.53783e-06
 Reference value :  4.55793e-06
 Reference value :  4.59811e-06
 Reference value :  4.67847e-06
 Reference value :  4.75010e-06
 Reference value :  4.75011e-06
 Reference value :  4.75013e-06
 Reference value :  4.75017e-06
 Reference value :  4.75020e-06
 Reference value :  4.75020e-06
 Reference value :  4.75020e-06
 Reference value :  4.75021e-06
 Reference value :  4.75021e-06
 Reference value :  4.75022e-06
 Reference value :  4.75025e-06
 Reference value :  4.75029e-06
 Reference value :  4.75039e-06
 Reference value :  4.75057e-06
 Reference value :  4.75090e-06
 Reference value :  4.75155e-06
 Reference value :  4.75215e-06
 Reference value :  4.75278e-06
 Reference value :  4.75348e-06
 Reference value :  4.75440e-06
 Reference value :  4.75515e-06
 Reference value :  4.75598e-06
 Reference value :  4.75671e-06
 Reference value :  4.75751e-06
 Reference value :  4.75855e-06
 Reference value :  4.75965e-06
 Reference value :  4.76186e-06
 Reference value :  4.76418e-06
 Reference value :  4.76826e-06
 Reference value :  4.77263e-06
 Reference value :  4.78138e-06
 Reference value :  4.79889e-06
 Reference value :  4.83390e-06
 Reference value :  4.90392e-06
 Reference value :  5.00000e-06
 Reference value :  5.00001e-06
 Reference value :  5.00003e-06
 Reference value :  5.00007e-06
 Reference value :  5.00010e-06
 Reference value :  5.00010e-06
 Reference value :  5.00011e-06
 Reference value :  5.00013e-06
 Reference value :  5.00016e-06
 Reference value :  5.00023e-06
 Reference value :  5.00037e-06
 Reference value :  5.00057e-06
 Reference value :  5.00093e-06
 Reference value :  5.00143e-06
 Reference value :  5.00196e-06
 Reference value :  5.00260e-06
 Reference value :  5.00336e-06
 Reference value :  5.00412e-06
 Reference value :  5.00497e-06
 Reference value :  5.00572e-06
 Reference value :  5.00653e-06
 Reference value :  5.00734e-06
 Reference value :  5.00833e-06
 Reference value :  5.00924e-06
 Reference value :  5.01050e-06
 Reference value :  5.01208e-06
 Reference value :  5.01443e-06
 Reference value :  5.01784e-06
 Reference value :  5.02020e-06
 Reference value :  5.02227e-06
 Reference value :  5.02424e-06
 Reference value :  5.02618e-06
 Reference value :  5.02805e-06
 Reference value :  5.03034e-06
 Reference value :  5.03250e-06
 Reference value :  5.03545e-06
 Reference value :  5.03888e-06
 Reference value :  5.04398e-06
 Reference value :  5.04939e-06
 Reference value :  5.05570e-06
 Reference value :  5.06059e-06
 Reference value :  5.06578e-06
 Reference value :  5.07101e-06
 Reference value :  5.07653e-06
 Reference value :  5.08377e-06
 Reference value :  5.09074e-06
 Reference value :  5.09792e-06
 Reference value :  5.10596e-06
 Reference value :  5.12204e-06
 Reference value :  5.14787e-06
 Reference value :  5.19506e-06
 Reference value :  5.25010e-06
 Reference value :  5.25011e-06
 Reference value :  5.25013e-06
 Reference value :  5.25017e-06
 Reference value :  5.25020e-06
 Reference value :  5.25020e-06
 Reference value :  5.25020e-06
 Reference value :  5.25021e-06
 Reference value :  5.25021e-06
 Reference value :  5.25022e-06
 Reference value :  5.25025e-06
 Reference value :  5.25029e-06
 Reference value :  5.25039e-06
 Reference value :  5.25058e-06
 Reference value :  5.25091e-06
 Reference value :  5.25158e-06
 Reference value :  5.25218e-06
 Reference value :  5.25283e-06
 Reference value :  5.25353e-06
 Reference value :  5.25443e-06
 Reference value :  5.25513e-06
 Reference value :  5.25592e-06
 Reference value :  5.25679e-06
 Reference value :  5.25768e-06
 Reference value :  5.25882e-06
 Reference value :  5.26081e-06
 Reference value :  5.26322e-06
 Reference value :  5.26629e-06
 Reference value :  5.27058e-06
 Reference value :  5.27727e-06
 Reference value :  5.29064e-06
 Reference value :  5.31739e-06
 Reference value :  5.37088e-06
 Reference value :  5.47786e-06
 Reference value :  5.50000e-06
 Reference value :  5.50001e-06
 Reference value :  5.50003e-06
 Reference value :  5.50007e-06
 Reference value :  5.50010e-06
 Reference value :  5.50010e-06
 Reference value :  5.50011e-06
 Reference value :  5.50013e-06
 Reference value :  5.50016e-06
 Reference value :  5.50023e-06
 Reference value :  5.50037e-06
 Reference value :  5.50057e-06
 Reference value :  5.50093e-06
 Reference value :  5.50143e-06
 Reference value :  5.50196e-06
 Reference value :  5.50256e-06
 Reference value :  5.50328e-06
 Reference value :  5.50402e-06
 Reference value :  5.50495e-06
 Reference value :  5.50586e-06
 Reference value :  5.50685e-06
 Reference value :  5.50811e-06
 Reference value :  5.50926e-06
 Reference value :  5.51067e-06
 Reference value :  5.51201e-06
 Reference value :  5.51360e-06
 Reference value :  5.51529e-06
 Reference value :  5.51707e-06
 Reference value :  5.51916e-06
 Reference value :  5.52269e-06
 Reference value :  5.52785e-06
 Reference value :  5.53727e-06
 Reference value :  5.55454e-06
 Reference value :  5.58570e-06
 Reference value :  5.64661e-06
 Reference value :  5.75010e-06
 Reference value :  5.75011e-06
 Reference value :  5.75013e-06
 Reference value :  5.75017e-06
 Reference value :  5.75020e-06
 Reference value :  5.75020e-06
 Reference value :  5.75020e-06
 Reference value :  5.75021e-06
 Reference value :  5.75021e-06
 Reference value :  5.75022e-06
 Reference value :  5.75025e-06
 Reference value :  5.75029e-06
 Reference value :  5.75039e-06
 Reference value :  5.75058e-06
 Reference value :  5.75091e-06
 Reference value :  5.75158e-06
 Reference value :  5.75218e-06
 Reference value :  5.75283e-06
 Reference value :  5.75353e-06
 Reference value :  5.75443e-06
 Reference value :  5.75515e-06
 Reference value :  5.75596e-06
 Reference value :  5.75667e-06
 Reference value :  5.75747e-06
 Reference value :  5.75849e-06
 Reference value :  5.75957e-06
 Reference value :  5.76066e-06
 Reference value :  5.76241e-06
 Reference value :  5.76423e-06
 Reference value :  5.76708e-06
 Reference value :  5.77035e-06
 Reference value :  5.77499e-06
 Reference value :  5.78410e-06
 Reference value :  5.79597e-06
 Reference value :  5.81931e-06
 Reference value :  5.86389e-06
 Reference value :  5.95012e-06
 Reference value :  6.00000e-06
 Reference value :  6.00001e-06
 Reference value :  6.00003e-06
 Reference value :  6.00007e-06
 Reference value :  6.00010e-06
 Reference value :  6.00010e-06
 Reference value :  6.00011e-06
 Reference value :  6.00013e-06
 Reference value :  6.00017e-06
 Reference value :  6.00023e-06
 Reference value :  6.00037e-06
 Reference value :  6.00057e-06
 Reference value :  6.00093e-06
 Reference value :  6.00145e-06
 Reference value :  6.00198e-06
 Reference value :  6.00262e-06
 Reference value :  6.00338e-06
 Reference value :  6.00415e-06
 Reference value :  6.00498e-06
 Reference value :  6.00571e-06
 Reference value :  6.00649e-06
 Reference value :  6.00722e-06
 Reference value :  6.00805e-06
 Reference value :  6.00896e-06
 Reference value :  6.01001e-06
 Reference value :  6.01161e-06
 Reference value :  6.01350e-06
 Reference value :  6.01487e-06
 Reference value :  6.01640e-06
 Reference value :  6.01801e-06
 Reference value :  6.01975e-06
 Reference value :  6.02154e-06
 Reference value :  6.02276e-06
 Reference value :  6.02416e-06
 Reference value :  6.02537e-06
 Reference value :  6.02678e-06
 Reference value :  6.02820e-06
 Reference value :  6.02969e-06
 Reference value :  6.03223e-06
 Reference value :  6.03509e-06
 Reference value :  6.04081e-06
 Reference value :  6.04835e-06
 Reference value :  6.05788e-06
 Reference value :  6.06669e-06
 Reference value :  6.08109e-06
 Reference value :  6.10651e-06
 Reference value :  6.14011e-06
 Reference value :  6.18551e-06
 Reference value :  6.25010e-06
 Reference value :  6.25011e-06
 Reference value :  6.25013e-06
 Reference value :  6.25017e-06
 Reference value :  6.25020e-06
 Reference value :  6.25020e-06
 Reference value :  6.25020e-06
 Reference value :  6.25021e-06
 Reference value :  6.25021e-06
 Reference value :  6.25022e-06
 Reference value :  6.25025e-06
 Reference value :  6.25029e-06
 Reference value :  6.25039e-06
 Reference value :  6.25057e-06
 Reference value :  6.25090e-06
 Reference value :  6.25156e-06
 Reference value :  6.25216e-06
 Reference value :  6.25279e-06
 Reference value :  6.25350e-06
 Reference value :  6.25441e-06
 Reference value :  6.25514e-06
 Reference value :  6.25596e-06
 Reference value :  6.25681e-06
 Reference value :  6.25770e-06
 Reference value :  6.25888e-06
 Reference value :  6.26076e-06
 Reference value :  6.26320e-06
 Reference value :  6.26625e-06
 Reference value :  6.27056e-06
 Reference value :  6.27717e-06
 Reference value :  6.29039e-06
 Reference value :  6.31682e-06
 Reference value :  6.36968e-06
 Reference value :  6.47539e-06
 Reference value :  6.50000e-06
 Reference value :  6.50001e-06
 Reference value :  6.50003e-06
 Reference value :  6.50007e-06
 Reference value :  6.50010e-06
 Reference value :  6.50010e-06
 Reference value :  6.50011e-06
 Reference value :  6.50013e-06
 Reference value :  6.50016e-06
 Reference value :  6.50023e-06
 Reference value :  6.50037e-06
 Reference value :  6.50057e-06
 Reference value :  6.50093e-06
 Reference value :  6.50144e-06
 Reference value :  6.50196e-06
 Reference value :  6.50256e-06
 Reference value :  6.50328e-06
 Reference value :  6.50403e-06
 Reference value :  6.50495e-06
 Reference value :  6.50585e-06
 Reference value :  6.50684e-06
 Reference value :  6.50798e-06
 Reference value :  6.50929e-06
 Reference value :  6.51052e-06
 Reference value :  6.51179e-06
 Reference value :  6.51354e-06
 Reference value :  6.51521e-06
 Reference value :  6.51685e-06
 Reference value :  6.51888e-06
 Reference value :  6.52110e-06
 Reference value :  6.52480e-06
 Reference value :  6.53024e-06
 Reference value :  6.53966e-06
 Reference value :  6.55664e-06
 Reference value :  6.58657e-06
 Reference value :  6.64297e-06
 Reference value :  6.74616e-06
 Reference value :  6.75010e-06
 Reference value :  6.75011e-06
 Reference value :  6.75013e-06
 Reference value :  6.75017e-06
 Reference value :  6.75020e-06
 Reference value :  6.75020e-06
 Reference value :  6.75020e-06
 Reference value :  6.75021e-06
 Reference value :  6.75021e-06
 Reference value :  6.75022e-06
 Reference value :  6.75025e-06
 Reference value :  6.75029e-06
 Reference value :  6.75039e-06
 Reference value :  6.75058e-06
 Reference value :  6.75091e-06
 Reference value :  6.75158e-06
 Reference value :  6.75219e-06
 Reference value :  6.75283e-06
 Reference value :  6.75353e-06
 Reference value :  6.75443e-06
 Reference value :  6.75515e-06
 Reference value :  6.75596e-06
 Reference value :  6.75667e-06
 Reference value :  6.75746e-06
 Reference value :  6.75848e-06
 Reference value :  6.75957e-06
 Reference value :  6.76066e-06
 Reference value :  6.76241e-06
 Reference value :  6.76423e-06
 Reference value :  6.76708e-06
 Reference value :  6.77036e-06
 Reference value :  6.77499e-06
 Reference value :  6.78413e-06
 Reference value :  6.79603e-06
 Reference value :  6.81943e-06
 Reference value :  6.86420e-06
 Reference value :  6.95090e-06
 Reference value :  7.00000e-06
 Reference value :  7.00001e-06
 Reference value :  7.00003e-06
 Reference value :  7.00007e-06
 Reference value :  7.00010e-06
 Reference value :  7.00010e-06
 Reference value :  7.00011e-06
 Reference value :  7.00013e-06
 Reference value :  7.00017e-06
 Reference value :  7.00023e-06
 Reference value :  7.00037e-06
 Reference value :  7.00057e-06
 Reference value :  7.00093e-06
 Reference value :  7.00145e-06
 Reference value :  7.00198e-06
 Reference value :  7.00262e-06
 Reference value :  7.00338e-06
 Reference value :  7.00415e-06
 Reference value :  7.00498e-06
 Reference value :  7.00569e-06
 Reference value :  7.00648e-06
 Reference value :  7.00720e-06
 Reference value :  7.00804e-06
 Reference value :  7.00895e-06
 Reference value :  7.01000e-06
 Reference value :  7.01146e-06
 Reference value :  7.01345e-06
 Reference value :  7.01489e-06
 Reference value :  7.01648e-06
 Reference value :  7.01809e-06
 Reference value :  7.01988e-06
 Reference value :  7.02155e-06
 Reference value :  7.02282e-06
 Reference value :  7.02399e-06
 Reference value :  7.02522e-06
 Reference value :  7.02658e-06
 Reference value :  7.02810e-06
 Reference value :  7.02956e-06
 Reference value :  7.03197e-06
 Reference value :  7.03451e-06
 Reference value :  7.03906e-06
 Reference value :  7.04527e-06
 Reference value :  7.05293e-06
 Reference value :  7.06609e-06
 Reference value :  7.09242e-06
 Reference value :  7.12757e-06
 Reference value :  7.17469e-06
 Reference value :  7.22471e-06
 Reference value :  7.25010e-06
 Reference value :  7.25011e-06
 Reference value :  7.25013e-06
 Reference value :  7.25017e-06
 Reference value :  7.25020e-06
 Reference value :  7.25020e-06
 Reference value :  7.25020e-06
 Reference value :  7.25021e-06
 Reference value :  7.25021e-06
 Reference value :  7.25022e-06
 Reference value :  7.25025e-06
 Reference value :  7.25029e-06
 Reference value :  7.25039e-06
 Reference value :  7.25057e-06
 Reference value :  7.25091e-06
 Reference value :  7.25156e-06
 Reference value :  7.25216e-06
 Reference value :  7.25280e-06
 Reference value :  7.25351e-06
 Reference value :  7.25441e-06
 Reference value :  7.25511e-06
 Reference value :  7.25592e-06
 Reference value :  7.25678e-06
 Reference value :  7.25766e-06
 Reference value :  7.25881e-06
 Reference value :  7.26077e-06
 Reference value :  7.26322e-06
 Reference value :  7.26625e-06
 Reference value :  7.27057e-06
 Reference value :  7.27716e-06
 Reference value :  7.29035e-06
 Reference value :  7.31673e-06
 Reference value :  7.36949e-06
 Reference value :  7.47501e-06
 Reference value :  7.50000e-06
 Reference value :  7.50001e-06
 Reference value :  7.50003e-06
 Reference value :  7.50007e-06
 Reference value :  7.50010e-06
 Reference value :  7.50010e-06
 Reference value :  7.50011e-06
 Reference value :  7.50013e-06
 Reference value :  7.50016e-06
 Reference value :  7.50023e-06
 Reference value :  7.50037e-06
 Reference value :  7.50056e-06
 Reference value :  7.50092e-06
 Reference value :  7.50151e-06
 Reference value :  7.50204e-06
 Reference value :  7.50267e-06
 Reference value :  7.50337e-06
 Reference value :  7.50418e-06
 Reference value :  7.50501e-06
 Reference value :  7.50596e-06
 Reference value :  7.50694e-06
 Reference value :  7.50812e-06
 Reference value :  7.50933e-06
 Reference value :  7.51058e-06
 Reference value :  7.51186e-06
 Reference value :  7.51351e-06
 Reference value :  7.51495e-06
 Reference value :  7.51648e-06
 Reference value :  7.51814e-06
 Reference value :  7.52001e-06
 Reference value :  7.52342e-06
 Reference value :  7.52838e-06
 Reference value :  7.53822e-06
 Reference value :  7.55690e-06
 Reference value :  7.59277e-06
 Reference value :  7.66452e-06
 Reference value :  7.75010e-06
 Reference value :  7.75011e-06
 Reference value :  7.75013e-06
 Reference value :  7.75017e-06
 Reference value :  7.75020e-06
 Reference value :  7.75020e-06
 Reference value :  7.75020e-06
 Reference value :  7.75021e-06
 Reference value :  7.75021e-06
 Reference value :  7.75022e-06
 Reference value :  7.75025e-06
 Reference value :  7.75029e-06
 Reference value :  7.75039e-06
 Reference value :  7.75057e-06
 Reference value :  7.75091e-06
 Reference value :  7.75157e-06
 Reference value :  7.75217e-06
 Reference value :  7.75281e-06
 Reference value :  7.75352e-06
 Reference value :  7.75442e-06
 Reference value :  7.75512e-06
 Reference value :  7.75592e-06
 Reference value :  7.75664e-06
 Reference value :  7.75742e-06
 Reference value :  7.75845e-06
 Reference value :  7.75955e-06
 Reference value :  7.76064e-06
 Reference value :  7.76240e-06
 Reference value :  7.76423e-06
 Reference value :  7.76707e-06
 Reference value :  7.77039e-06
 Reference value :  7.77502e-06
 Reference value :  7.78419e-06
 Reference value :  7.79609e-06
 Reference value :  7.81962e-06
 Reference value :  7.86425e-06
 Reference value :  7.95069e-06
 Reference value :  8.00000e-06
 Reference value :  8.00001e-06
 Reference value :  8.00003e-06
 Reference value :  8.00007e-06
 Reference value :  8.00010e-06
 Reference value :  8.00010e-06
 Reference value :  8.00011e-06
 Reference value :  8.00013e-06
 Reference value :  8.00017e-06
 Reference value :  8.00023e-06
 Reference value :  8.00037e-06
 Reference value :  8.00057e-06
 Reference value :  8.00093e-06
 Reference value :  8.00151e-06
 Reference value :  8.00205e-06
 Reference value :  8.00270e-06
 Reference value :  8.00347e-06
 Reference value :  8.00429e-06
 Reference value :  8.00514e-06
 Reference value :  8.00596e-06
 Reference value :  8.00670e-06
 Reference value :  8.00741e-06
 Reference value :  8.00823e-06
 Reference value :  8.00915e-06
 Reference value :  8.01026e-06
 Reference value :  8.01210e-06
 Reference value :  8.01414e-06
 Reference value :  8.01564e-06
 Reference value :  8.01732e-06
 Reference value :  8.01918e-06
 Reference value :  8.02098e-06
 Reference value :  8.02289e-06
 Reference value :  8.02506e-06
 Reference value :  8.02808e-06
 Reference value :  8.03161e-06
 Reference value :  8.03627e-06
 Reference value :  8.04124e-06
 Reference value :  8.04696e-06
 Reference value :  8.05167e-06
 Reference value :  8.05658e-06
 Reference value :  8.06217e-06
 Reference value :  8.06919e-06
 Reference value :  8.07703e-06
 Reference value :  8.09270e-06
 Reference value :  8.11704e-06
 Reference value :  8.15727e-06
 Reference value :  8.22905e-06
 Reference value :  8.25010e-06
 Reference value :  8.25011e-06
 Reference value :  8.25013e-06
 Reference value :  8.25017e-06
 Reference value :  8.25020e-06
 Reference value :  8.25020e-06
 Reference value :  8.25020e-06
 Reference value :  8.25021e-06
 Reference value :  8.25021e-06
 Reference value :  8.25022e-06
 Reference value :  8.25025e-06
 Reference value :  8.25029e-06
 Reference value :  8.25039e-06
 Reference value :  8.25058e-06
 Reference value :  8.25096e-06
 Reference value :  8.25160e-06
 Reference value :  8.25223e-06
 Reference value :  8.25289e-06
 Reference value :  8.25360e-06
 Reference value :  8.25448e-06
 Reference value :  8.25544e-06
 Reference value :  8.25666e-06
 Reference value :  8.25800e-06
 Reference value :  8.25944e-06
 Reference value :  8.26193e-06
 Reference value :  8.26450e-06
 Reference value :  8.26848e-06
 Reference value :  8.27326e-06
 Reference value :  8.28282e-06
 Reference value :  8.30194e-06
 Reference value :  8.34017e-06
 Reference value :  8.41665e-06
 Reference value :  8.50000e-06
 Reference value :  8.50000e-06
 Reference value :  8.50000e-06
 Reference value :  8.50000e-06
 Reference value :  8.50000e-06
 Reference value :  8.50000e-06
 Reference value :  8.50000e-06
 Reference value :  8.50000e-06
 Reference value :  8.50000e-06
 Reference value :  8.50000e-06
 Reference value :  8.50001e-06
 Reference value :  8.50001e-06
 Reference value :  8.50002e-06
 Reference value :  8.50004e-06
 Reference value :  8.50008e-06
 Reference value :  8.50010e-06
 Reference value :  8.50010e-06
 Reference value :  8.50011e-06
 Reference value :  8.50012e-06
 Reference value :  8.50014e-06
 Reference value :  8.50018e-06
 Reference value :  8.50026e-06
 Reference value :  8.50042e-06
 Reference value :  8.50074e-06
 Reference value :  8.50127e-06
 Reference value :  8.50184e-06
 Reference value :  8.50268e-06
 Reference value :  8.50347e-06
 Reference value :  8.50424e-06
 Reference value :  8.50514e-06
 Reference value :  8.50596e-06
 Reference value :  8.50716e-06
 Reference value :  8.50871e-06
 Reference value :  8.51039e-06
 Reference value :  8.51199e-06
 Reference value :  8.51370e-06
 Reference value :  8.51558e-06
 Reference value :  8.51860e-06
 Reference value :  8.52180e-06
 Reference value :  8.52820e-06
 Reference value :  8.53495e-06
 Reference value :  8.53964e-06
 Reference value :  8.54384e-06
 Reference value :  8.54788e-06
 Reference value :  8.55098e-06
 Reference value :  8.55402e-06
 Reference value :  8.55720e-06
 Reference value :  8.56048e-06
 Reference value :  8.56461e-06
 Reference value :  8.56934e-06
 Reference value :  8.57552e-06
 Reference value :  8.58345e-06
 Reference value :  8.59412e-06
 Reference value :  8.60790e-06
 Reference value :  8.62262e-06
 Reference value :  8.64229e-06
 Reference value :  8.66285e-06
 Reference value :  8.69536e-06
 Reference value :  8.74232e-06
 Reference value :  8.75010e-06
 Reference value :  8.75011e-06
 Reference value :  8.75013e-06
 Reference value :  8.75017e-06
 Reference value :  8.75020e-06
 Reference value :  8.75020e-06
 Reference value :  8.75020e-06
 Reference value :  8.75021e-06
 Reference value :  8.75021e-06
 Reference value :  8.75022e-06
 Reference value :  8.75025e-06
 Reference value :  8.75029e-06
 Reference value :  8.75039e-06
 Reference value :  8.75057e-06
 Reference value :  8.75095e-06
 Reference value :  8.75162e-06
 Reference value :  8.75223e-06
 Reference value :  8.75289e-06
 Reference value :  8.75359e-06
 Reference value :  8.75448e-06
 Reference value :  8.75519e-06
 Reference value :  8.75601e-06
 Reference value :  8.75683e-06
 Reference value :  8.75769e-06
 Reference value :  8.75883e-06
 Reference value :  8.76060e-06
 Reference value :  8.76331e-06
 Reference value :  8.76618e-06
 Reference value :  8.77068e-06
 Reference value :  8.77685e-06
 Reference value :  8.78917e-06
 Reference value :  8.81382e-06
 Reference value :  8.86312e-06
 Reference value :  8.96172e-06
 Reference value :  9.00000e-06
 Reference value :  9.00001e-06
 Reference value :  9.00003e-06
 Reference value :  9.00007e-06
 Reference value :  9.00010e-06
 Reference value :  9.00010e-06
 Reference value :  9.00011e-06
 Reference value :  9.00013e-06
 Reference value :  9.00016e-06
 Reference value :  9.00023e-06
 Reference value :  9.00037e-06
 Reference value :  9.00057e-06
 Reference value :  9.00095e-06
 Reference value :  9.00154e-06
 Reference value :  9.00209e-06
 Reference value :  9.00276e-06
 Reference value :  9.00352e-06
 Reference value :  9.00426e-06
 Reference value :  9.00503e-06
 Reference value :  9.00584e-06
 Reference value :  9.00676e-06
 Reference value :  9.00781e-06
 Reference value :  9.00943e-06
 Reference value :  9.01164e-06
 Reference value :  9.01414e-06
 Reference value :  9.01612e-06
 Reference value :  9.01826e-06
 Reference value :  9.02030e-06
 Reference value :  9.02300e-06
 Reference value :  9.02657e-06
 Reference value :  9.03175e-06
 Reference value :  9.03958e-06
 Reference value :  9.05236e-06
 Reference value :  9.07227e-06
 Reference value :  9.10510e-06
 Reference value :  9.15835e-06
 Reference value :  9.24539e-06
 Reference value :  9.25010e-06
 Reference value :  9.25011e-06
 Reference value :  9.25013e-06
 Reference value :  9.25017e-06
 Reference value :  9.25020e-06
 Reference value :  9.25020e-06
 Reference value :  9.25020e-06
 Reference value :  9.25021e-06
 Reference value :  9.25021e-06
 Reference value :  9.25022e-06
 Reference value :  9.25025e-06
 Reference value :  9.25029e-06
 Reference value :  9.25039e-06
 Reference value :  9.25058e-06
 Reference value :  9.25096e-06
 Reference value :  9.25157e-06
 Reference value :  9.25219e-06
 Reference value :  9.25284e-06
 Reference value :  9.25354e-06
 Reference value :  9.25445e-06
 Reference value :  9.25517e-06
 Reference value :  9.25600e-06
 Reference value :  9.25673e-06
 Reference value :  9.25753e-06
 Reference value :  9.25860e-06
 Reference value :  9.25973e-06
 Reference value :  9.26198e-06
 Reference value :  9.26436e-06
 Reference value :  9.26846e-06
 Reference value :  9.27293e-06
 Reference value :  9.28187e-06
 Reference value :  9.29974e-06
 Reference value :  9.33549e-06
 Reference value :  9.40700e-06
 Reference value :  9.50000e-06
 Reference value :  9.50001e-06
 Reference value :  9.50003e-06
 Reference value :  9.50007e-06
 Reference value :  9.50010e-06
 Reference value :  9.50010e-06
 Reference value :  9.50011e-06
 Reference value :  9.50013e-06
 Reference value :  9.50016e-06
 Reference value :  9.50023e-06
 Reference value :  9.50037e-06
 Reference value :  9.50057e-06
 Reference value :  9.50095e-06
 Reference value :  9.50154e-06
 Reference value :  9.50209e-06
 Reference value :  9.50276e-06
 Reference value :  9.50352e-06
 Reference value :  9.50439e-06
 Reference value :  9.50519e-06
 Reference value :  9.50605e-06
 Reference value :  9.50684e-06
 Reference value :  9.50758e-06
 Reference value :  9.50846e-06
 Reference value :  9.50937e-06
 Reference value :  9.51056e-06
 Reference value :  9.51240e-06
 Reference value :  9.51474e-06
 Reference value :  9.51829e-06
 Reference value :  9.52070e-06
 Reference value :  9.52285e-06
 Reference value :  9.52490e-06
 Reference value :  9.52669e-06
 Reference value :  9.52857e-06
 Reference value :  9.53088e-06
 Reference value :  9.53344e-06
 Reference value :  9.53651e-06
 Reference value :  9.54089e-06
 Reference value :  9.54671e-06
 Reference value :  9.55197e-06
 Reference value :  9.55585e-06
 Reference value :  9.56081e-06
 Reference value :  9.56539e-06
 Reference value :  9.56907e-06
 Reference value :  9.57300e-06
 Reference value :  9.57678e-06
 Reference value :  9.58114e-06
 Reference value :  9.58770e-06
 Reference value :  9.59586e-06
 Reference value :  9.60340e-06
 Reference value :  9.61209e-06
 Reference value :  9.62096e-06
 Reference value :  9.63725e-06
 Reference value :  9.66030e-06
 Reference value :  9.70079e-06
 Reference value :  9.75010e-06
 Reference value :  9.75011e-06
 Reference value :  9.75013e-06
 Reference value :  9.75017e-06
 Reference value :  9.75020e-06
 Reference value :  9.75020e-06
 Reference value :  9.75020e-06
 Reference value :  9.75021e-06
 Reference value :  9.75021e-06
 Reference value :  9.75022e-06
 Reference value :  9.75025e-06
 Reference value :  9.75029e-06
 Reference value :  9.75039e-06
 Reference value :  9.75057e-06
 Reference value :  9.75090e-06
 Reference value :  9.75154e-06
 Reference value :  9.75213e-06
 Reference value :  9.75276e-06
 Reference value :  9.75347e-06
 Reference value :  9.75438e-06
 Reference value :  9.75512e-06
 Reference value :  9.75594e-06
 Reference value :  9.75680e-06
 Reference value :  9.75770e-06
 Reference value :  9.75887e-06
 Reference value :  9.76083e-06
 Reference value :  9.76325e-06
 Reference value :  9.76634e-06
 Reference value :  9.77064e-06
 Reference value :  9.77747e-06
 Reference value :  9.79112e-06
 Reference value :  9.81843e-06
 Reference value :  9.87304e-06
 Reference value :  9.98226e-06
 Reference value :  1.00000e-05
 Reference value :  1.00000e-05
 Reference value :  1.00000e-05
 Reference value :  1.00001e-05
 Reference value :  1.00001e-05
 Reference value :  1.00001e-05
 Reference value :  1.00001e-05
 Reference value :  1.00001e-05
 Reference value :  1.00002e-05
 Reference value :  1.00002e-05
 Reference value :  1.00004e-05
 Reference value :  1.00006e-05
 Reference value :  1.00009e-05
 Reference value :  1.00014e-05
 Reference value :  1.00020e-05
 Reference value :  1.00026e-05
 Reference value :  1.00033e-05
 Reference value :  1.00040e-05
 Reference value :  1.00050e-05
 Reference value :  1.00059e-05
 Reference value :  1.00069e-05
 Reference value :  1.00081e-05
 Reference value :  1.00094e-05
 Reference value :  1.00107e-05
 Reference value :  1.00120e-05
 Reference value :  1.00137e-05
 Reference value :  1.00150e-05
 Reference value :  1.00166e-05
 Reference value :  1.00182e-05
 Reference value :  1.00200e-05
 Reference value :  1.00235e-05
 Reference value :  1.00294e-05
 Reference value :  1.00396e-05
 Reference value :  1.00601e-05
 Reference value :  1.01011e-05
 Reference value :  1.01830e-05
 Reference value :  1.02501e-05
 Reference value :  1.02501e-05
 Reference value :  1.02501e-05
 Reference value :  1.02502e-05
 Reference value :  1.02502e-05
 Reference value :  1.02502e-05
 Reference value :  1.02502e-05
 Reference value :  1.02502e-05
 Reference value :  1.02502e-05
 Reference value :  1.02502e-05
 Reference value :  1.02502e-05
 Reference value :  1.02503e-05
 Reference value :  1.02504e-05
 Reference value :  1.02506e-05
 Reference value :  1.02509e-05
 Reference value :  1.02516e-05
 Reference value :  1.02521e-05
 Reference value :  1.02528e-05
 Reference value :  1.02535e-05
 Reference value :  1.02544e-05
 Reference value :  1.02551e-05
 Reference value :  1.02560e-05
 Reference value :  1.02567e-05
 Reference value :  1.02575e-05
 Reference value :  1.02586e-05
 Reference value :  1.02597e-05
 Reference value :  1.02608e-05
 Reference value :  1.02625e-05
 Reference value :  1.02645e-05
 Reference value :  1.02672e-05
 Reference value :  1.02707e-05
 Reference value :  1.02753e-05
 Reference value :  1.02843e-05
 Reference value :  1.02983e-05
 Reference value :  1.03263e-05
 Reference value :  1.03822e-05
 Reference value :  1.04940e-05
 Reference value :  1.05000e-05
 Reference value :  1.05000e-05
 Reference value :  1.05000e-05
 Reference value :  1.05001e-05
 Reference value :  1.05001e-05
 Reference value :  1.05001e-05
 Reference value :  1.05001e-05
 Reference value :  1.05001e-05
 Reference value :  1.05002e-05
 Reference value :  1.05002e-05
 Reference value :  1.05004e-05
 Reference value :  1.05006e-05
 Reference value :  1.05009e-05
 Reference value :  1.05014e-05
 Reference value :  1.05020e-05
 Reference value :  1.05026e-05
 Reference value :  1.05034e-05
 Reference value :  1.05041e-05
 Reference value :  1.05050e-05
 Reference value :  1.05057e-05
 Reference value :  1.05065e-05
 Reference value :  1.05072e-05
 Reference value :  1.05080e-05
 Reference value :  1.05088e-05
 Reference value :  1.05099e-05
 Reference value :  1.05111e-05
 Reference value :  1.05131e-05
 Reference value :  1.05160e-05
 Reference value :  1.05179e-05
 Reference value :  1.05200e-05
 Reference value :  1.05220e-05
 Reference value :  1.05234e-05
 Reference value :  1.05248e-05
 Reference value :  1.05260e-05
 Reference value :  1.05274e-05
 Reference value :  1.05290e-05
 Reference value :  1.05310e-05
 Reference value :  1.05337e-05
 Reference value :  1.05371e-05
 Reference value :  1.05439e-05
 Reference value :  1.05545e-05
 Reference value :  1.05725e-05
 Reference value :  1.06044e-05
 Reference value :  1.06569e-05
 Reference value :  1.07209e-05
 Reference value :  1.07501e-05
 Reference value :  1.07501e-05
 Reference value :  1.07501e-05
 Reference value :  1.07502e-05
 Reference value :  1.07502e-05
 Reference value :  1.07502e-05
 Reference value :  1.07502e-05
 Reference value :  1.07502e-05
 Reference value :  1.07502e-05
 Reference value :  1.07502e-05
 Reference value :  1.07502e-05
 Reference value :  1.07503e-05
 Reference value :  1.07504e-05
 Reference value :  1.07506e-05
 Reference value :  1.07509e-05
 Reference value :  1.07516e-05
 Reference value :  1.07522e-05
 Reference value :  1.07528e-05
 Reference value :  1.07535e-05
 Reference value :  1.07544e-05
 Reference value :  1.07551e-05
 Reference value :  1.07559e-05
 Reference value :  1.07568e-05
 Reference value :  1.07577e-05
 Reference value :  1.07589e-05
 Reference value :  1.07607e-05
 Reference value :  1.07632e-05
 Reference value :  1.07662e-05
 Reference value :  1.07705e-05
 Reference value :  1.07769e-05
 Reference value :  1.07896e-05
 Reference value :  1.08151e-05
 Reference value :  1.08661e-05
 Reference value :  1.09191e-05
 Reference value :  1.09808e-05
 Reference value :  1.10000e-05
 Reference value :  1.10000e-05
 Reference value :  1.10000e-05
 Reference value :  1.10001e-05
 Reference value :  1.10001e-05
 Reference value :  1.10001e-05
 Reference value :  1.10001e-05
 Reference value :  1.10001e-05
 Reference value :  1.10002e-05
 Reference value :  1.10002e-05
 Reference value :  1.10004e-05
 Reference value :  1.10006e-05
 Reference value :  1.10009e-05
 Reference value :  1.10014e-05
 Reference value :  1.10020e-05
 Reference value :  1.10026e-05
 Reference value :  1.10033e-05
 Reference value :  1.10041e-05
 Reference value :  1.10050e-05
 Reference value :  1.10059e-05
 Reference value :  1.10069e-05
 Reference value :  1.10081e-05
 Reference value :  1.10093e-05
 Reference value :  1.10106e-05
 Reference value :  1.10120e-05
 Reference value :  1.10136e-05
 Reference value :  1.10149e-05
 Reference value :  1.10165e-05
 Reference value :  1.10180e-05
 Reference value :  1.10198e-05
 Reference value :  1.10233e-05
 Reference value :  1.10292e-05
 Reference value :  1.10397e-05
 Reference value :  1.10606e-05
 Reference value :  1.11024e-05
 Reference value :  1.11861e-05
 Reference value :  1.12501e-05
 Reference value :  1.12501e-05
 Reference value :  1.12501e-05
 Reference value :  1.12502e-05
 Reference value :  1.12502e-05
 Reference value :  1.12502e-05
 Reference value :  1.12502e-05
 Reference value :  1.12502e-05
 Reference value :  1.12502e-05
 Reference value :  1.12502e-05
 Reference value :  1.12502e-05
 Reference value :  1.12503e-05
 Reference value :  1.12504e-05
 Reference value :  1.12506e-05
 Reference value :  1.12509e-05
 Reference value :  1.12516e-05
 Reference value :  1.12522e-05
 Reference value :  1.12528e-05
 Reference value :  1.12535e-05
 Reference value :  1.12544e-05
 Reference value :  1.12551e-05
 Reference value :  1.12560e-05
 Reference value :  1.12567e-05
 Reference value :  1.12575e-05
 Reference value :  1.12585e-05
 Reference value :  1.12596e-05
 Reference value :  1.12608e-05
 Reference value :  1.12625e-05
 Reference value :  1.12645e-05
 Reference value :  1.12672e-05
 Reference value :  1.12707e-05
 Reference value :  1.12753e-05
 Reference value :  1.12844e-05
 Reference value :  1.12977e-05
 Reference value :  1.13243e-05
 Reference value :  1.13774e-05
 Reference value :  1.14836e-05
 Reference value :  1.15000e-05
 Reference value :  1.15000e-05
 Reference value :  1.15000e-05
 Reference value :  1.15001e-05
 Reference value :  1.15001e-05
 Reference value :  1.15001e-05
 Reference value :  1.15001e-05
 Reference value :  1.15001e-05
 Reference value :  1.15002e-05
 Reference value :  1.15002e-05
 Reference value :  1.15004e-05
 Reference value :  1.15006e-05
 Reference value :  1.15009e-05
 Reference value :  1.15014e-05
 Reference value :  1.15020e-05
 Reference value :  1.15026e-05
 Reference value :  1.15034e-05
 Reference value :  1.15041e-05
 Reference value :  1.15050e-05
 Reference value :  1.15057e-05
 Reference value :  1.15065e-05
 Reference value :  1.15072e-05
 Reference value :  1.15081e-05
 Reference value :  1.15089e-05
 Reference value :  1.15099e-05
 Reference value :  1.15111e-05
 Reference value :  1.15130e-05
 Reference value :  1.15149e-05
 Reference value :  1.15166e-05
 Reference value :  1.15183e-05
 Reference value :  1.15202e-05
 Reference value :  1.15217e-05
 Reference value :  1.15232e-05
 Reference value :  1.15251e-05
 Reference value :  1.15268e-05
 Reference value :  1.15283e-05
 Reference value :  1.15304e-05
 Reference value :  1.15331e-05
 Reference value :  1.15359e-05
 Reference value :  1.15408e-05
 Reference value :  1.15472e-05
 Reference value :  1.15574e-05
 Reference value :  1.15738e-05
 Reference value :  1.16022e-05
 Reference value :  1.16289e-05
 Reference value :  1.16575e-05
 Reference value :  1.16913e-05
 Reference value :  1.17247e-05
 Reference value :  1.17501e-05
 Reference value :  1.17501e-05
 Reference value :  1.17501e-05
 Reference value :  1.17502e-05
 Reference value :  1.17502e-05
 Reference value :  1.17502e-05
 Reference value :  1.17502e-05
 Reference value :  1.17502e-05
 Reference value :  1.17502e-05
 Reference value :  1.17502e-05
 Reference value :  1.17502e-05
 Reference value :  1.17503e-05
 Reference value :  1.17504e-05
 Reference value :  1.17506e-05
 Reference value :  1.17509e-05
 Reference value :  1.17516e-05
 Reference value :  1.17521e-05
 Reference value :  1.17528e-05
 Reference value :  1.17535e-05
 Reference value :  1.17544e-05
 Reference value :  1.17551e-05
 Reference value :  1.17560e-05
 Reference value :  1.17568e-05
 Reference value :  1.17577e-05
 Reference value :  1.17589e-05
 Reference value :  1.17608e-05
 Reference value :  1.17632e-05
 Reference value :  1.17663e-05
 Reference value :  1.17706e-05
 Reference value :  1.17772e-05
 Reference value :  1.17904e-05
 Reference value :  1.18169e-05
 Reference value :  1.18699e-05
 Reference value :  1.19759e-05
 Reference value :  1.20000e-05
 Reference value :  1.20000e-05
 Reference value :  1.20000e-05
 Reference value :  1.20001e-05
 Reference value :  1.20001e-05
 Reference value :  1.20001e-05
 Reference value :  1.20001e-05
 Reference value :  1.20001e-05
 Reference value :  1.20002e-05
 Reference value :  1.20002e-05
 Reference value :  1.20004e-05
 Reference value :  1.20006e-05
 Reference value :  1.20009e-05
 Reference value :  1.20014e-05
 Reference value :  1.20020e-05
 Reference value :  1.20026e-05
 Reference value :  1.20033e-05
 Reference value :  1.20040e-05
 Reference value :  1.20050e-05
 Reference value :  1.20058e-05
 Reference value :  1.20068e-05
 Reference value :  1.20080e-05
 Reference value :  1.20093e-05
 Reference value :  1.20105e-05
 Reference value :  1.20118e-05
 Reference value :  1.20135e-05
 Reference value :  1.20149e-05
 Reference value :  1.20165e-05
 Reference value :  1.20181e-05
 Reference value :  1.20199e-05
 Reference value :  1.20234e-05
 Reference value :  1.20285e-05
 Reference value :  1.20386e-05
 Reference value :  1.20589e-05
 Reference value :  1.20995e-05
 Reference value :  1.21807e-05
 Reference value :  1.22501e-05
 Reference value :  1.22501e-05
 Reference value :  1.22501e-05
 Reference value :  1.22502e-05
 Reference value :  1.22502e-05
 Reference value :  1.22502e-05
 Reference value :  1.22502e-05
 Reference value :  1.22502e-05
 Reference value :  1.22502e-05
 Reference value :  1.22502e-05
 Reference value :  1.22502e-05
 Reference value :  1.22503e-05
 Reference value :  1.22504e-05
 Reference value :  1.22506e-05
 Reference value :  1.22509e-05
 Reference value :  1.22516e-05
 Reference value :  1.22522e-05
 Reference value :  1.22528e-05
 Reference value :  1.22535e-05
 Reference value :  1.22544e-05
 Reference value :  1.22551e-05
 Reference value :  1.22560e-05
 Reference value :  1.22567e-05
 Reference value :  1.22575e-05
 Reference value :  1.22585e-05
 Reference value :  1.22596e-05
 Reference value :  1.22607e-05
 Reference value :  1.22625e-05
 Reference value :  1.22642e-05
 Reference value :  1.22671e-05
 Reference value :  1.22704e-05
 Reference value :  1.22750e-05
 Reference value :  1.22836e-05
 Reference value :  1.22948e-05
 Reference value :  1.23156e-05
 Reference value :  1.23552e-05
 Reference value :  1.24199e-05
 Reference value :  1.25000e-05
 Reference value :  1.25000e-05
 Reference value :  1.25000e-05
 Reference value :  1.25001e-05
 Reference value :  1.25001e-05
 Reference value :  1.25001e-05
 Reference value :  1.25001e-05
 Reference value :  1.25001e-05
 Reference value :  1.25002e-05
 Reference value :  1.25002e-05
 Reference value :  1.25004e-05
 Reference value :  1.25006e-05
 Reference value :  1.25009e-05
 Reference value :  1.25014e-05
 Reference value :  1.25020e-05
 Reference value :  1.25026e-05
 Reference value :  1.25034e-05
 Reference value :  1.25041e-05
 Reference value :  1.25050e-05
 Reference value :  1.25057e-05
 Reference value :  1.25065e-05
 Reference value :  1.25072e-05
 Reference value :  1.25080e-05
 Reference value :  1.25089e-05
 Reference value :  1.25099e-05
 Reference value :  1.25112e-05
 Reference value :  1.25132e-05
 Reference value :  1.25146e-05
 Reference value :  1.25161e-05
 Reference value :  1.25177e-05
 Reference value :  1.25194e-05
 Reference value :  1.25210e-05
 Reference value :  1.25224e-05
 Reference value :  1.25239e-05
 Reference value :  1.25252e-05
 Reference value :  1.25267e-05
 Reference value :  1.25282e-05
 Reference value :  1.25297e-05
 Reference value :  1.25323e-05
 Reference value :  1.25353e-05
 Reference value :  1.25413e-05
 Reference value :  1.25495e-05
 Reference value :  1.25633e-05
 Reference value :  1.25783e-05
 Reference value :  1.25929e-05
 Reference value :  1.26031e-05
 Reference value :  1.26130e-05
 Reference value :  1.26237e-05
 Reference value :  1.26346e-05
 Reference value :  1.26524e-05
 Reference value :  1.26714e-05
 Reference value :  1.26982e-05
 Reference value :  1.27332e-05
 Reference value :  1.27501e-05
 Reference value :  1.27501e-05
 Reference value :  1.27501e-05
 Reference value :  1.27502e-05
 Reference value :  1.27502e-05
 Reference value :  1.27502e-05
 Reference value :  1.27502e-05
 Reference value :  1.27502e-05
 Reference value :  1.27502e-05
 Reference value :  1.27502e-05
 Reference value :  1.27502e-05
 Reference value :  1.27503e-05
 Reference value :  1.27504e-05
 Reference value :  1.27506e-05
 Reference value :  1.27509e-05
 Reference value :  1.27516e-05
 Reference value :  1.27522e-05
 Reference value :  1.27528e-05
 Reference value :  1.27535e-05
 Reference value :  1.27544e-05
 Reference value :  1.27552e-05
 Reference value :  1.27560e-05
 Reference value :  1.27568e-05
 Reference value :  1.27577e-05
 Reference value :  1.27589e-05
 Reference value :  1.27607e-05
 Reference value :  1.27632e-05
 Reference value :  1.27663e-05
 Reference value :  1.27706e-05
 Reference value :  1.27771e-05
 Reference value :  1.27900e-05
 Reference value :  1.28158e-05
 Reference value :  1.28674e-05
 Reference value :  1.29706e-05
 Reference value :  1.30000e-05
 Reference value :  1.30000e-05
 Reference value :  1.30000e-05
 Reference value :  1.30001e-05
 Reference value :  1.30001e-05
 Reference value :  1.30001e-05
 Reference value :  1.30001e-05
 Reference value :  1.30001e-05
 Reference value :  1.30002e-05
 Reference value :  1.30002e-05
 Reference value :  1.30004e-05
 Reference value :  1.30006e-05
 Reference value :  1.30009e-05
 Reference value :  1.30014e-05
 Reference value :  1.30020e-05
 Reference value :  1.30026e-05
 Reference value :  1.30034e-05
 Reference value :  1.30041e-05
 Reference value :  1.30049e-05
 Reference value :  1.30058e-05
 Reference value :  1.30068e-05
 Reference value :  1.30079e-05
 Reference value :  1.30090e-05
 Reference value :  1.30102e-05
 Reference value :  1.30114e-05
 Reference value :  1.30131e-05
 Reference value :  1.30145e-05
 Reference value :  1.30160e-05
 Reference value :  1.30175e-05
 Reference value :  1.30193e-05
 Reference value :  1.30227e-05
 Reference value :  1.30277e-05
 Reference value :  1.30378e-05
 Reference value :  1.30578e-05
 Reference value :  1.30978e-05
 Reference value :  1.31779e-05
 Reference value :  1.32501e-05
 Reference value :  1.32501e-05
 Reference value :  1.32501e-05
 Reference value :  1.32502e-05
 Reference value :  1.32502e-05
 Reference value :  1.32502e-05
 Reference value :  1.32502e-05
 Reference value :  1.32502e-05
 Reference value :  1.32502e-05
 Reference value :  1.32502e-05
 Reference value :  1.32502e-05
 Reference value :  1.32503e-05
 Reference value :  1.32504e-05
 Reference value :  1.32506e-05
 Reference value :  1.32509e-05
 Reference value :  1.32515e-05
 Reference value :  1.32521e-05
 Reference value :  1.32528e-05
 Reference value :  1.32535e-05
 Reference value :  1.32544e-05
 Reference value :  1.32551e-05
 Reference value :  1.32560e-05
 Reference value :  1.32567e-05
 Reference value :  1.32575e-05
 Reference value :  1.32585e-05
 Reference value :  1.32596e-05
 Reference value :  1.32619e-05
 Reference value :  1.32642e-05
 Reference value :  1.32682e-05
 Reference value :  1.32726e-05
 Reference value :  1.32814e-05
 Reference value :  1.32989e-05
 Reference value :  1.33339e-05
 Reference value :  1.34038e-05
 Reference value :  1.35000e-05
 Reference value :  1.35000e-05
 Reference value :  1.35000e-05
 Reference value :  1.35001e-05
 Reference value :  1.35001e-05
 Reference value :  1.35001e-05
 Reference value :  1.35001e-05
 Reference value :  1.35001e-05
 Reference value :  1.35002e-05
 Reference value :  1.35002e-05
 Reference value :  1.35004e-05
 Reference value :  1.35006e-05
 Reference value :  1.35009e-05
 Reference value :  1.35014e-05
 Reference value :  1.35020e-05
 Reference value :  1.35026e-05
 Reference value :  1.35034e-05
 Reference value :  1.35041e-05
 Reference value :  1.35050e-05
 Reference value :  1.35057e-05
 Reference value :  1.35065e-05
 Reference value :  1.35073e-05
 Reference value :  1.35083e-05
 Reference value :  1.35092e-05
 Reference value :  1.35105e-05
 Reference value :  1.35121e-05
 Reference value :  1.35144e-05
 Reference value :  1.35178e-05
 Reference value :  1.35202e-05
 Reference value :  1.35223e-05
 Reference value :  1.35242e-05
 Reference value :  1.35262e-05
 Reference value :  1.35281e-05
 Reference value :  1.35303e-05
 Reference value :  1.35325e-05
 Reference value :  1.35354e-05
 Reference value :  1.35389e-05
 Reference value :  1.35440e-05
 Reference value :  1.35485e-05
 Reference value :  1.35540e-05
 Reference value :  1.35605e-05
 Reference value :  1.35650e-05
 Reference value :  1.35697e-05
 Reference value :  1.35748e-05
 Reference value :  1.35804e-05
 Reference value :  1.35883e-05
 Reference value :  1.35954e-05
 Reference value :  1.36040e-05
 Reference value :  1.36122e-05
 Reference value :  1.36287e-05
 Reference value :  1.36486e-05
 Reference value :  1.36798e-05
 Reference value :  1.37341e-05
 Reference value :  1.37501e-05
 Reference value :  1.37501e-05
 Reference value :  1.37501e-05
 Reference value :  1.37502e-05
 Reference value :  1.37502e-05
 Reference value :  1.37502e-05
 Reference value :  1.37502e-05
 Reference value :  1.37502e-05
 Reference value :  1.37502e-05
 Reference value :  1.37502e-05
 Reference value :  1.37502e-05
 Reference value :  1.37503e-05
 Reference value :  1.37504e-05
 Reference value :  1.37506e-05
 Reference value :  1.37509e-05
 Reference value :  1.37516e-05
 Reference value :  1.37522e-05
 Reference value :  1.37528e-05
 Reference value :  1.37535e-05
 Reference value :  1.37544e-05
 Reference value :  1.37551e-05
 Reference value :  1.37559e-05
 Reference value :  1.37568e-05
 Reference value :  1.37577e-05
 Reference value :  1.37588e-05
 Reference value :  1.37608e-05
 Reference value :  1.37632e-05
 Reference value :  1.37663e-05
 Reference value :  1.37706e-05
 Reference value :  1.37773e-05
 Reference value :  1.37906e-05
 Reference value :  1.38174e-05
 Reference value :  1.38709e-05
 Reference value :  1.39779e-05
 Reference value :  1.40000e-05
 Reference value :  1.40000e-05
 Reference value :  1.40000e-05
 Reference value :  1.40001e-05
 Reference value :  1.40001e-05
 Reference value :  1.40001e-05
 Reference value :  1.40001e-05
 Reference value :  1.40001e-05
 Reference value :  1.40002e-05
 Reference value :  1.40002e-05
 Reference value :  1.40004e-05
 Reference value :  1.40006e-05
 Reference value :  1.40009e-05
 Reference value :  1.40014e-05
 Reference value :  1.40020e-05
 Reference value :  1.40026e-05
 Reference value :  1.40033e-05
 Reference value :  1.40040e-05
 Reference value :  1.40049e-05
 Reference value :  1.40059e-05
 Reference value :  1.40068e-05
 Reference value :  1.40081e-05
 Reference value :  1.40093e-05
 Reference value :  1.40107e-05
 Reference value :  1.40120e-05
 Reference value :  1.40136e-05
 Reference value :  1.40153e-05
 Reference value :  1.40171e-05
 Reference value :  1.40192e-05
 Reference value :  1.40227e-05
 Reference value :  1.40278e-05
 Reference value :  1.40371e-05
 Reference value :  1.40542e-05
 Reference value :  1.40850e-05
 Reference value :  1.41450e-05
 Reference value :  1.42501e-05
 Reference value :  1.42501e-05
 Reference value :  1.42501e-05
 Reference value :  1.42502e-05
 Reference value :  1.42502e-05
 Reference value :  1.42502e-05
 Reference value :  1.42502e-05
 Reference value :  1.42502e-05
 Reference value :  1.42502e-05
 Reference value :  1.42502e-05
 Reference value :  1.42502e-05
 Reference value :  1.42503e-05
 Reference value :  1.42504e-05
 Reference value :  1.42506e-05
 Reference value :  1.42509e-05
 Reference value :  1.42516e-05
 Reference value :  1.42522e-05
 Reference value :  1.42528e-05
 Reference value :  1.42535e-05
 Reference value :  1.42544e-05
 Reference value :  1.42551e-05
 Reference value :  1.42560e-05
 Reference value :  1.42567e-05
 Reference value :  1.42575e-05
 Reference value :  1.42585e-05
 Reference value :  1.42596e-05
 Reference value :  1.42607e-05
 Reference value :  1.42624e-05
 Reference value :  1.42642e-05
 Reference value :  1.42671e-05
 Reference value :  1.42704e-05
 Reference value :  1.42750e-05
 Reference value :  1.42841e-05
 Reference value :  1.42960e-05
 Reference value :  1.43193e-05
 Reference value :  1.43639e-05
 Reference value :  1.44502e-05
 Reference value :  1.45000e-05
 Reference value :  1.45000e-05
 Reference value :  1.45000e-05
 Reference value :  1.45001e-05
 Reference value :  1.45001e-05
 Reference value :  1.45001e-05
 Reference value :  1.45001e-05
 Reference value :  1.45001e-05
 Reference value :  1.45002e-05
 Reference value :  1.45002e-05
 Reference value :  1.45004e-05
 Reference value :  1.45006e-05
 Reference value :  1.45009e-05
 Reference value :  1.45014e-05
 Reference value :  1.45020e-05
 Reference value :  1.45026e-05
 Reference value :  1.45034e-05
 Reference value :  1.45041e-05
 Reference value :  1.45050e-05
 Reference value :  1.45057e-05
 Reference value :  1.45065e-05
 Reference value :  1.45072e-05
 Reference value :  1.45081e-05
 Reference value :  1.45090e-05
 Reference value :  1.45100e-05
 Reference value :  1.45116e-05
 Reference value :  1.45135e-05
 Reference value :  1.45149e-05
 Reference value :  1.45164e-05
 Reference value :  1.45180e-05
 Reference value :  1.45198e-05
 Reference value :  1.45215e-05
 Reference value :  1.45228e-05
 Reference value :  1.45242e-05
 Reference value :  1.45254e-05
 Reference value :  1.45268e-05
 Reference value :  1.45282e-05
 Reference value :  1.45297e-05
 Reference value :  1.45322e-05
 Reference value :  1.45350e-05
 Reference value :  1.45407e-05
 Reference value :  1.45483e-05
 Reference value :  1.45578e-05
 Reference value :  1.45666e-05
 Reference value :  1.45809e-05
 Reference value :  1.46061e-05
 Reference value :  1.46325e-05
 Reference value :  1.46657e-05
 Reference value :  1.47301e-05
 Reference value :  1.47501e-05
 Reference value :  1.47501e-05
 Reference value :  1.47501e-05
 Reference value :  1.47502e-05
 Reference value :  1.47502e-05
 Reference value :  1.47502e-05
 Reference value :  1.47502e-05
 Reference value :  1.47502e-05
 Reference value :  1.47502e-05
 Reference value :  1.47502e-05
 Reference value :  1.47502e-05
 Reference value :  1.47503e-05
 Reference value :  1.47504e-05
 Reference value :  1.47506e-05
 Reference value :  1.47509e-05
 Reference value :  1.47516e-05
 Reference value :  1.47522e-05
 Reference value :  1.47528e-05
 Reference value :  1.47535e-05
 Reference value :  1.47544e-05
 Reference value :  1.47551e-05
 Reference value :  1.47559e-05
 Reference value :  1.47568e-05
 Reference value :  1.47577e-05
 Reference value :  1.47588e-05
 Reference value :  1.47607e-05
 Reference value :  1.47632e-05
 Reference value :  1.47661e-05
 Reference value :  1.47705e-05
 Reference value :  1.47768e-05
 Reference value :  1.47895e-05
 Reference value :  1.48148e-05
 Reference value :  1.48655e-05
 Reference value :  1.49669e-05
 Reference value :  1.50000e-05
 Reference value :  1.50000e-05
 Reference value :  1.50000e-05
 Reference value :  1.50001e-05
 Reference value :  1.50001e-05
 Reference value :  1.50001e-05
 Reference value :  1.50001e-05
 Reference value :  1.50001e-05
 Reference value :  1.50002e-05
 Reference value :  1.50002e-05
 Reference value :  1.50004e-05
 Reference value :  1.50006e-05
 Reference value :  1.50009e-05
 Reference value :  1.50014e-05
 Reference value :  1.50020e-05
 Reference value :  1.50026e-05
 Reference value :  1.50033e-05
 Reference value :  1.50040e-05
 Reference value :  1.50049e-05
 Reference value :  1.50058e-05
 Reference value :  1.50068e-05
 Reference value :  1.50080e-05
 Reference value :  1.50093e-05
 Reference value :  1.50105e-05
 Reference value :  1.50118e-05
 Reference value :  1.50136e-05
 Reference value :  1.50152e-05
 Reference value :  1.50169e-05
 Reference value :  1.50189e-05
 Reference value :  1.50211e-05
 Reference value :  1.50248e-05
 Reference value :  1.50303e-05
 Reference value :  1.50397e-05
 Reference value :  1.50567e-05
 Reference value :  1.50866e-05
 Reference value :  1.51429e-05
 Reference value :  1.52458e-05
 Reference value :  1.52501e-05
 Reference value :  1.52501e-05
 Reference value :  1.52501e-05
 Reference value :  1.52502e-05
 Reference value :  1.52502e-05
 Reference value :  1.52502e-05
 Reference value :  1.52502e-05
 Reference value :  1.52502e-05
 Reference value :  1.52502e-05
 Reference value :  1.52502e-05
 Reference value :  1.52502e-05
 Reference value :  1.52503e-05
 Reference value :  1.52504e-05
 Reference value :  1.52506e-05
 Reference value :  1.52509e-05
 Reference value :  1.52516e-05
 Reference value :  1.52522e-05
 Reference value :  1.52528e-05
 Reference value :  1.52535e-05
 Reference value :  1.52544e-05
 Reference value :  1.52551e-05
 Reference value :  1.52560e-05
 Reference value :  1.52567e-05
 Reference value :  1.52575e-05
 Reference value :  1.52585e-05
 Reference value :  1.52596e-05
 Reference value :  1.52607e-05
 Reference value :  1.52624e-05
 Reference value :  1.52642e-05
 Reference value :  1.52671e-05
 Reference value :  1.52704e-05
 Reference value :  1.52750e-05
 Reference value :  1.52841e-05
 Reference value :  1.52960e-05
 Reference value :  1.53194e-05
 Reference value :  1.53642e-05
 Reference value :  1.54510e-05
 Reference value :  1.55000e-05
 Reference value :  1.55007e-05
 Reference value :  1.55021e-05
 Reference value :  1.55028e-05
 Reference value :  1.55035e-05
 Reference value :  1.55043e-05
 Reference value :  1.55052e-05
 Reference value :  1.55059e-05
 Reference value :  1.55067e-05
 Reference value :  1.55074e-05
 Reference value :  1.55082e-05
 Reference value :  1.55092e-05
 Reference value :  1.55102e-05
 Reference value :  1.55121e-05
 Reference value :  1.55141e-05
 Reference value :  1.55156e-05
 Reference value :  1.55173e-05
 Reference value :  1.55188e-05
 Reference value :  1.55205e-05
 Reference value :  1.55222e-05
 Reference value :  1.55237e-05
 Reference value :  1.55253e-05
 Reference value :  1.55269e-05
 Reference value :  1.55286e-05
 Reference value :  1.55304e-05
 Reference value :  1.55331e-05
 Reference value :  1.55360e-05
 Reference value :  1.55418e-05
 Reference value :  1.55478e-05
 Reference value :  1.55583e-05
 Reference value :  1.55724e-05
 Reference value :  1.56006e-05
 Reference value :  1.56296e-05
 Reference value :  1.56678e-05
 Reference value :  1.57093e-05
 Reference value :  1.57487e-05
 Reference value :  1.57501e-05
 Reference value :  1.57501e-05
 Reference value :  1.57501e-05
[...]
 Reference value :  1.74256e-04
 Reference value :  1.74257e-04
 Reference value :  1.74258e-04
 Reference value :  1.74259e-04
 Reference value :  1.74261e-04
 Reference value :  1.74263e-04
 Reference value :  1.74266e-04
 Reference value :  1.74271e-04
 Reference value :  1.74277e-04
 Reference value :  1.74290e-04
 Reference value :  1.74316e-04
 Reference value :  1.74367e-04
 Reference value :  1.74470e-04
 Reference value :  1.74500e-04
 Reference value :  1.74500e-04
 Reference value :  1.74500e-04
 Reference value :  1.74500e-04
 Reference value :  1.74500e-04
 Reference value :  1.74500e-04
 Reference value :  1.74500e-04
 Reference value :  1.74500e-04
 Reference value :  1.74500e-04
 Reference value :  1.74500e-04
 Reference value :  1.74500e-04
 Reference value :  1.74501e-04
 Reference value :  1.74501e-04
 Reference value :  1.74501e-04
 Reference value :  1.74502e-04
 Reference value :  1.74503e-04
 Reference value :  1.74503e-04
 Reference value :  1.74504e-04
 Reference value :  1.74505e-04
 Reference value :  1.74506e-04
 Reference value :  1.74507e-04
 Reference value :  1.74508e-04
 Reference value :  1.74509e-04
 Reference value :  1.74510e-04
 Reference value :  1.74511e-04
 Reference value :  1.74513e-04
 Reference value :  1.74515e-04
 Reference value :  1.74516e-04
 Reference value :  1.74518e-04
 Reference value :  1.74519e-04
 Reference value :  1.74523e-04
 Reference value :  1.74528e-04
 Reference value :  1.74538e-04
 Reference value :  1.74558e-04
 Reference value :  1.74597e-04
 Reference value :  1.74677e-04
 Reference value :  1.74750e-04
 Reference value :  1.74750e-04
 Reference value :  1.74750e-04
 Reference value :  1.74750e-04
 Reference value :  1.74750e-04
 Reference value :  1.74750e-04
 Reference value :  1.74750e-04
 Reference value :  1.74750e-04
 Reference value :  1.74750e-04
 Reference value :  1.74750e-04
 Reference value :  1.74750e-04
 Reference value :  1.74750e-04
 Reference value :  1.74750e-04
 Reference value :  1.74751e-04
 Reference value :  1.74751e-04
 Reference value :  1.74752e-04
 Reference value :  1.74752e-04
 Reference value :  1.74753e-04
 Reference value :  1.74753e-04
 Reference value :  1.74754e-04
 Reference value :  1.74755e-04
 Reference value :  1.74756e-04
 Reference value :  1.74757e-04
 Reference value :  1.74758e-04
 Reference value :  1.74759e-04
 Reference value :  1.74760e-04
 Reference value :  1.74762e-04
 Reference value :  1.74764e-04
 Reference value :  1.74768e-04
 Reference value :  1.74773e-04
 Reference value :  1.74781e-04
 Reference value :  1.74799e-04
 Reference value :  1.74834e-04
 Reference value :  1.74904e-04
 Reference value :  1.75000e-04
 Reference value :  1.75000e-04
 Reference value :  1.75000e-04
 Reference value :  1.75000e-04
 Reference value :  1.75000e-04
 Reference value :  1.75000e-04
 Reference value :  1.75000e-04
 Reference value :  1.75000e-04
 Reference value :  1.75000e-04
 Reference value :  1.75000e-04
 Reference value :  1.75000e-04
 Reference value :  1.75001e-04
 Reference value :  1.75001e-04
 Reference value :  1.75001e-04
 Reference value :  1.75002e-04
 Reference value :  1.75003e-04
 Reference value :  1.75003e-04
 Reference value :  1.75004e-04
 Reference value :  1.75005e-04
 Reference value :  1.75006e-04
 Reference value :  1.75007e-04
 Reference value :  1.75007e-04
 Reference value :  1.75008e-04
 Reference value :  1.75009e-04
 Reference value :  1.75010e-04
 Reference value :  1.75012e-04
 Reference value :  1.75014e-04
 Reference value :  1.75018e-04
 Reference value :  1.75020e-04
 Reference value :  1.75022e-04
 Reference value :  1.75024e-04
 Reference value :  1.75026e-04
 Reference value :  1.75028e-04
 Reference value :  1.75030e-04
 Reference value :  1.75032e-04
 Reference value :  1.75035e-04
 Reference value :  1.75039e-04
 Reference value :  1.75044e-04
 Reference value :  1.75051e-04
 Reference value :  1.75062e-04
 Reference value :  1.75076e-04
 Reference value :  1.75087e-04
 Reference value :  1.75100e-04
 Reference value :  1.75113e-04
 Reference value :  1.75128e-04
 Reference value :  1.75141e-04
 Reference value :  1.75154e-04
 Reference value :  1.75166e-04
 Reference value :  1.75182e-04
 Reference value :  1.75212e-04
 Reference value :  1.75250e-04
 Reference value :  1.75250e-04
 Reference value :  1.75250e-04
 Reference value :  1.75250e-04
 Reference value :  1.75250e-04
 Reference value :  1.75250e-04
 Reference value :  1.75250e-04
 Reference value :  1.75250e-04
 Reference value :  1.75250e-04
 Reference value :  1.75250e-04
 Reference value :  1.75250e-04
 Reference value :  1.75250e-04
 Reference value :  1.75250e-04
 Reference value :  1.75251e-04
 Reference value :  1.75251e-04
 Reference value :  1.75252e-04
 Reference value :  1.75252e-04
 Reference value :  1.75253e-04
 Reference value :  1.75253e-04
 Reference value :  1.75254e-04
 Reference value :  1.75255e-04
 Reference value :  1.75256e-04
 Reference value :  1.75257e-04
 Reference value :  1.75258e-04
 Reference value :  1.75259e-04
 Reference value :  1.75261e-04
 Reference value :  1.75263e-04
 Reference value :  1.75266e-04
 Reference value :  1.75271e-04
 Reference value :  1.75278e-04
 Reference value :  1.75292e-04
 Reference value :  1.75318e-04
 Reference value :  1.75371e-04
 Reference value :  1.75475e-04
 Reference value :  1.75500e-04
 Reference value :  1.75500e-04
 Reference value :  1.75500e-04
 Reference value :  1.75500e-04
 Reference value :  1.75500e-04
 Reference value :  1.75500e-04
 Reference value :  1.75500e-04
 Reference value :  1.75500e-04
 Reference value :  1.75500e-04
 Reference value :  1.75500e-04
 Reference value :  1.75500e-04
 Reference value :  1.75501e-04
 Reference value :  1.75501e-04
 Reference value :  1.75501e-04
 Reference value :  1.75502e-04
 Reference value :  1.75503e-04
 Reference value :  1.75503e-04
 Reference value :  1.75504e-04
 Reference value :  1.75505e-04
 Reference value :  1.75506e-04
 Reference value :  1.75507e-04
 Reference value :  1.75508e-04
 Reference value :  1.75509e-04
 Reference value :  1.75511e-04
 Reference value :  1.75512e-04
 Reference value :  1.75513e-04
 Reference value :  1.75515e-04
 Reference value :  1.75517e-04
 Reference value :  1.75519e-04
 Reference value :  1.75521e-04
 Reference value :  1.75525e-04
 Reference value :  1.75531e-04
 Reference value :  1.75541e-04
 Reference value :  1.75559e-04
 Reference value :  1.75591e-04
 Reference value :  1.75651e-04
 Reference value :  1.75750e-04
 Reference value :  1.75750e-04
 Reference value :  1.75750e-04
 Reference value :  1.75750e-04
 Reference value :  1.75750e-04
 Reference value :  1.75750e-04
 Reference value :  1.75750e-04
 Reference value :  1.75750e-04
 Reference value :  1.75750e-04
 Reference value :  1.75750e-04
 Reference value :  1.75750e-04
 Reference value :  1.75750e-04
 Reference value :  1.75750e-04
 Reference value :  1.75751e-04
 Reference value :  1.75751e-04
 Reference value :  1.75752e-04
 Reference value :  1.75752e-04
 Reference value :  1.75753e-04
 Reference value :  1.75753e-04
 Reference value :  1.75754e-04
 Reference value :  1.75755e-04
 Reference value :  1.75756e-04
 Reference value :  1.75757e-04
 Reference value :  1.75757e-04
 Reference value :  1.75759e-04
 Reference value :  1.75760e-04
 Reference value :  1.75762e-04
 Reference value :  1.75764e-04
 Reference value :  1.75768e-04
 Reference value :  1.75773e-04
 Reference value :  1.75781e-04
 Reference value :  1.75799e-04
 Reference value :  1.75834e-04
 Reference value :  1.75903e-04
 Reference value :  1.76000e-04
 Reference value :  1.76000e-04
 Reference value :  1.76000e-04
 Reference value :  1.76000e-04
 Reference value :  1.76000e-04
 Reference value :  1.76000e-04
 Reference value :  1.76000e-04
 Reference value :  1.76000e-04
 Reference value :  1.76000e-04
 Reference value :  1.76000e-04
 Reference value :  1.76000e-04
 Reference value :  1.76001e-04
 Reference value :  1.76001e-04
 Reference value :  1.76001e-04
 Reference value :  1.76002e-04
 Reference value :  1.76003e-04
 Reference value :  1.76003e-04
 Reference value :  1.76004e-04
 Reference value :  1.76005e-04
 Reference value :  1.76006e-04
 Reference value :  1.76007e-04
 Reference value :  1.76007e-04
 Reference value :  1.76008e-04
 Reference value :  1.76009e-04
 Reference value :  1.76010e-04
 Reference value :  1.76012e-04
 Reference value :  1.76014e-04
 Reference value :  1.76017e-04
 Reference value :  1.76019e-04
 Reference value :  1.76021e-04
 Reference value :  1.76023e-04
 Reference value :  1.76025e-04
 Reference value :  1.76026e-04
 Reference value :  1.76027e-04
 Reference value :  1.76029e-04
 Reference value :  1.76031e-04
 Reference value :  1.76034e-04
 Reference value :  1.76037e-04
 Reference value :  1.76044e-04
 Reference value :  1.76052e-04
 Reference value :  1.76061e-04
 Reference value :  1.76071e-04
 Reference value :  1.76082e-04
 Reference value :  1.76089e-04
 Reference value :  1.76097e-04
 Reference value :  1.76106e-04
 Reference value :  1.76116e-04
 Reference value :  1.76130e-04
 Reference value :  1.76148e-04
 Reference value :  1.76163e-04
 Reference value :  1.76183e-04
 Reference value :  1.76208e-04
 Reference value :  1.76250e-04
 Reference value :  1.76250e-04
 Reference value :  1.76250e-04
 Reference value :  1.76250e-04
 Reference value :  1.76250e-04
 Reference value :  1.76250e-04
 Reference value :  1.76250e-04
 Reference value :  1.76250e-04
 Reference value :  1.76250e-04
 Reference value :  1.76250e-04
 Reference value :  1.76250e-04
 Reference value :  1.76250e-04
 Reference value :  1.76250e-04
 Reference value :  1.76251e-04
 Reference value :  1.76251e-04
 Reference value :  1.76252e-04
 Reference value :  1.76252e-04
 Reference value :  1.76253e-04
 Reference value :  1.76253e-04
 Reference value :  1.76254e-04
 Reference value :  1.76255e-04
 Reference value :  1.76256e-04
 Reference value :  1.76257e-04
 Reference value :  1.76258e-04
 Reference value :  1.76259e-04
 Reference value :  1.76261e-04
 Reference value :  1.76263e-04
 Reference value :  1.76266e-04
 Reference value :  1.76271e-04
 Reference value :  1.76277e-04
 Reference value :  1.76291e-04
 Reference value :  1.76317e-04
 Reference value :  1.76370e-04
 Reference value :  1.76477e-04
 Reference value :  1.76500e-04
 Reference value :  1.76500e-04
 Reference value :  1.76500e-04
 Reference value :  1.76500e-04
 Reference value :  1.76500e-04
 Reference value :  1.76500e-04
 Reference value :  1.76500e-04
 Reference value :  1.76500e-04
 Reference value :  1.76500e-04
 Reference value :  1.76500e-04
 Reference value :  1.76500e-04
 Reference value :  1.76501e-04
 Reference value :  1.76501e-04
 Reference value :  1.76501e-04
 Reference value :  1.76502e-04
 Reference value :  1.76503e-04
 Reference value :  1.76503e-04
 Reference value :  1.76504e-04
 Reference value :  1.76505e-04
 Reference value :  1.76506e-04
 Reference value :  1.76507e-04
 Reference value :  1.76508e-04
 Reference value :  1.76509e-04
 Reference value :  1.76511e-04
 Reference value :  1.76512e-04
 Reference value :  1.76514e-04
 Reference value :  1.76515e-04
 Reference value :  1.76517e-04
 Reference value :  1.76519e-04
 Reference value :  1.76521e-04
 Reference value :  1.76525e-04
 Reference value :  1.76530e-04
 Reference value :  1.76539e-04
 Reference value :  1.76556e-04
 Reference value :  1.76586e-04
 Reference value :  1.76641e-04
 Reference value :  1.76744e-04
 Reference value :  1.76750e-04
 Reference value :  1.76750e-04
 Reference value :  1.76750e-04
 Reference value :  1.76750e-04
 Reference value :  1.76750e-04
 Reference value :  1.76750e-04
 Reference value :  1.76750e-04
 Reference value :  1.76750e-04
 Reference value :  1.76750e-04
 Reference value :  1.76750e-04
 Reference value :  1.76750e-04
 Reference value :  1.76750e-04
 Reference value :  1.76750e-04
 Reference value :  1.76751e-04
 Reference value :  1.76751e-04
 Reference value :  1.76752e-04
 Reference value :  1.76752e-04
 Reference value :  1.76753e-04
 Reference value :  1.76754e-04
 Reference value :  1.76754e-04
 Reference value :  1.76755e-04
 Reference value :  1.76756e-04
 Reference value :  1.76757e-04
 Reference value :  1.76757e-04
 Reference value :  1.76758e-04
 Reference value :  1.76760e-04
 Reference value :  1.76761e-04
 Reference value :  1.76762e-04
 Reference value :  1.76764e-04
 Reference value :  1.76767e-04
 Reference value :  1.76770e-04
 Reference value :  1.76775e-04
 Reference value :  1.76784e-04
 Reference value :  1.76796e-04
 Reference value :  1.76819e-04
 Reference value :  1.76862e-04
 Reference value :  1.76947e-04
 Reference value :  1.77000e-04
 Reference value :  1.77000e-04
 Reference value :  1.77000e-04
 Reference value :  1.77000e-04
 Reference value :  1.77000e-04
 Reference value :  1.77000e-04
 Reference value :  1.77000e-04
 Reference value :  1.77000e-04
 Reference value :  1.77000e-04
 Reference value :  1.77000e-04
 Reference value :  1.77000e-04
 Reference value :  1.77001e-04
 Reference value :  1.77001e-04
 Reference value :  1.77001e-04
 Reference value :  1.77002e-04
 Reference value :  1.77003e-04
 Reference value :  1.77003e-04
 Reference value :  1.77004e-04
 Reference value :  1.77005e-04
 Reference value :  1.77006e-04
 Reference value :  1.77006e-04
 Reference value :  1.77007e-04
 Reference value :  1.77008e-04
 Reference value :  1.77009e-04
 Reference value :  1.77010e-04
 Reference value :  1.77011e-04
 Reference value :  1.77013e-04
 Reference value :  1.77015e-04
 Reference value :  1.77016e-04
 Reference value :  1.77018e-04
 Reference value :  1.77020e-04
 Reference value :  1.77022e-04
 Reference value :  1.77023e-04
 Reference value :  1.77024e-04
 Reference value :  1.77025e-04
 Reference value :  1.77027e-04
 Reference value :  1.77028e-04
 Reference value :  1.77030e-04
 Reference value :  1.77032e-04
 Reference value :  1.77035e-04
 Reference value :  1.77038e-04
 Reference value :  1.77041e-04
 Reference value :  1.77044e-04
 Reference value :  1.77048e-04
 Reference value :  1.77053e-04
 Reference value :  1.77058e-04
 Reference value :  1.77068e-04
 Reference value :  1.77082e-04
 Reference value :  1.77105e-04
 Reference value :  1.77146e-04
 Reference value :  1.77208e-04
 Reference value :  1.77250e-04
 Reference value :  1.77250e-04
 Reference value :  1.77250e-04
 Reference value :  1.77250e-04
 Reference value :  1.77250e-04
 Reference value :  1.77250e-04
 Reference value :  1.77250e-04
 Reference value :  1.77250e-04
 Reference value :  1.77250e-04
 Reference value :  1.77250e-04
 Reference value :  1.77250e-04
 Reference value :  1.77250e-04
 Reference value :  1.77250e-04
 Reference value :  1.77251e-04
 Reference value :  1.77251e-04
 Reference value :  1.77252e-04
 Reference value :  1.77252e-04
 Reference value :  1.77253e-04
 Reference value :  1.77254e-04
 Reference value :  1.77254e-04
 Reference value :  1.77255e-04
 Reference value :  1.77256e-04
 Reference value :  1.77257e-04
 Reference value :  1.77258e-04
 Reference value :  1.77259e-04
 Reference value :  1.77261e-04
 Reference value :  1.77263e-04
 Reference value :  1.77266e-04
 Reference value :  1.77271e-04
 Reference value :  1.77277e-04
 Reference value :  1.77290e-04
 Reference value :  1.77316e-04
 Reference value :  1.77367e-04
 Reference value :  1.77470e-04
 Reference value :  1.77500e-04
 Reference value :  1.77500e-04
 Reference value :  1.77500e-04
 Reference value :  1.77500e-04
 Reference value :  1.77500e-04
 Reference value :  1.77500e-04
 Reference value :  1.77500e-04
 Reference value :  1.77500e-04
 Reference value :  1.77500e-04
 Reference value :  1.77500e-04
 Reference value :  1.77500e-04
 Reference value :  1.77501e-04
 Reference value :  1.77501e-04
 Reference value :  1.77501e-04
 Reference value :  1.77502e-04
 Reference value :  1.77503e-04
 Reference value :  1.77503e-04
 Reference value :  1.77504e-04
 Reference value :  1.77505e-04
 Reference value :  1.77506e-04
 Reference value :  1.77507e-04
 Reference value :  1.77508e-04
 Reference value :  1.77509e-04
 Reference value :  1.77511e-04
 Reference value :  1.77512e-04
 Reference value :  1.77513e-04
 Reference value :  1.77515e-04
 Reference value :  1.77516e-04
 Reference value :  1.77518e-04
 Reference value :  1.77520e-04
 Reference value :  1.77523e-04
 Reference value :  1.77528e-04
 Reference value :  1.77538e-04
 Reference value :  1.77557e-04
 Reference value :  1.77594e-04
 Reference value :  1.77667e-04
 Reference value :  1.77750e-04
 Reference value :  1.77750e-04
 Reference value :  1.77750e-04
 Reference value :  1.77750e-04
 Reference value :  1.77750e-04
 Reference value :  1.77750e-04
 Reference value :  1.77750e-04
 Reference value :  1.77750e-04
 Reference value :  1.77750e-04
 Reference value :  1.77750e-04
 Reference value :  1.77750e-04
 Reference value :  1.77750e-04
 Reference value :  1.77750e-04
 Reference value :  1.77751e-04
 Reference value :  1.77751e-04
 Reference value :  1.77752e-04
 Reference value :  1.77752e-04
 Reference value :  1.77753e-04
 Reference value :  1.77754e-04
 Reference value :  1.77754e-04
 Reference value :  1.77755e-04
 Reference value :  1.77756e-04
 Reference value :  1.77757e-04
 Reference value :  1.77757e-04
 Reference value :  1.77758e-04
 Reference value :  1.77760e-04
 Reference value :  1.77762e-04
 Reference value :  1.77764e-04
 Reference value :  1.77768e-04
 Reference value :  1.77772e-04
 Reference value :  1.77781e-04
 Reference value :  1.77798e-04
 Reference value :  1.77833e-04
 Reference value :  1.77902e-04
 Reference value :  1.78000e-04
 Reference value :  1.78000e-04
 Reference value :  1.78000e-04
 Reference value :  1.78000e-04
 Reference value :  1.78000e-04
 Reference value :  1.78000e-04
 Reference value :  1.78000e-04
 Reference value :  1.78000e-04
 Reference value :  1.78000e-04
 Reference value :  1.78000e-04
 Reference value :  1.78000e-04
 Reference value :  1.78001e-04
 Reference value :  1.78001e-04
 Reference value :  1.78001e-04
 Reference value :  1.78002e-04
 Reference value :  1.78003e-04
 Reference value :  1.78003e-04
 Reference value :  1.78004e-04
 Reference value :  1.78005e-04
 Reference value :  1.78006e-04
 Reference value :  1.78007e-04
 Reference value :  1.78007e-04
 Reference value :  1.78008e-04
 Reference value :  1.78009e-04
 Reference value :  1.78010e-04
 Reference value :  1.78012e-04
 Reference value :  1.78014e-04
 Reference value :  1.78017e-04
 Reference value :  1.78020e-04
 Reference value :  1.78023e-04
 Reference value :  1.78025e-04
 Reference value :  1.78028e-04
 Reference value :  1.78034e-04
 Reference value :  1.78042e-04
 Reference value :  1.78054e-04
 Reference value :  1.78077e-04
 Reference value :  1.78121e-04
 Reference value :  1.78210e-04
 Reference value :  1.78250e-04
 Reference value :  1.78250e-04
 Reference value :  1.78250e-04
 Reference value :  1.78250e-04
 Reference value :  1.78250e-04
 Reference value :  1.78250e-04
 Reference value :  1.78250e-04
 Reference value :  1.78250e-04
 Reference value :  1.78250e-04
 Reference value :  1.78250e-04
 Reference value :  1.78250e-04
 Reference value :  1.78250e-04
 Reference value :  1.78250e-04
 Reference value :  1.78251e-04
 Reference value :  1.78251e-04
 Reference value :  1.78252e-04
 Reference value :  1.78252e-04
 Reference value :  1.78253e-04
 Reference value :  1.78254e-04
 Reference value :  1.78254e-04
 Reference value :  1.78255e-04
 Reference value :  1.78257e-04
 Reference value :  1.78258e-04
 Reference value :  1.78259e-04
 Reference value :  1.78262e-04
 Reference value :  1.78265e-04
 Reference value :  1.78269e-04
 Reference value :  1.78273e-04
 Reference value :  1.78283e-04
 Reference value :  1.78302e-04
 Reference value :  1.78340e-04
 Reference value :  1.78416e-04
 Reference value :  1.78500e-04
No. of Data Rows : 27834
ngspice-44 done
