
Note: Compatibility modes selected: hs a


Circuit: ** sch_path: /home/ece/cace/sar-adc-using-sky130-pdk/runs/run_2025-09-10_19-58-20/parameters/sampling_rate/run_21/sampling_rate.sch

option SCALE: Scale is set to 1e-06 for instance and model parameters
option SCALE: Scale is set to 1e-06 for instance and model parameters
option SCALE: Scale is set to 1e-06 for instance and model parameters
option SCALE: Scale is set to 1e-06 for instance and model parameters
Doing analysis at TEMP = 27.000000 and TNOM = 27.000000

Using KLU as Direct Linear Solver
Operating point simulation skipped by 'uic',
  now using transient initial conditions.
 Reference value :  1.00000e-12
 Reference value :  1.08400e-12
 Reference value :  1.70925e-12
 Reference value :  3.19367e-12
 Reference value :  9.67539e-12
 Reference value :  3.43737e-11
 Reference value :  1.00000e-10
 Reference value :  1.16454e-10
 Reference value :  1.82270e-10
 Reference value :  4.45534e-10
 Reference value :  9.77651e-10
 Reference value :  1.85019e-09
 Reference value :  3.19567e-09
 Reference value :  5.07409e-09
 Reference value :  6.77599e-09
 Reference value :  8.37134e-09
 Reference value :  1.16825e-08
 Reference value :  1.25463e-08
 Reference value :  1.41852e-08
 Reference value :  1.86045e-08
 Reference value :  2.51620e-08
 Reference value :  3.25623e-08
 Reference value :  5.11704e-08
 Reference value :  1.23001e-07
 Reference value :  1.63791e-07
 Reference value :  2.05971e-07
 Reference value :  2.29832e-07
 Reference value :  2.50110e-07
 Reference value :  2.50170e-07
 Reference value :  2.50223e-07
 Reference value :  2.50390e-07
 Reference value :  2.50672e-07
 Reference value :  2.51270e-07
 Reference value :  2.51669e-07
 Reference value :  2.52634e-07
 Reference value :  2.53200e-07
 Reference value :  2.54206e-07
 Reference value :  2.56176e-07
 Reference value :  2.60984e-07
 Reference value :  2.96082e-07
 Reference value :  4.77908e-07
 Reference value :  5.00070e-07
 Reference value :  5.00156e-07
 Reference value :  5.00827e-07
 Reference value :  5.01942e-07
 Reference value :  5.02818e-07
 Reference value :  5.04630e-07
 Reference value :  5.07732e-07
 Reference value :  5.09919e-07
 Reference value :  5.12471e-07
 Reference value :  5.20636e-07
 Reference value :  6.43788e-07
 Reference value :  7.50170e-07
 Reference value :  7.50320e-07
 Reference value :  7.51397e-07
 Reference value :  7.52990e-07
 Reference value :  7.53972e-07
 Reference value :  7.55028e-07
 Reference value :  7.56546e-07
 Reference value :  7.59545e-07
 Reference value :  7.67043e-07
 Reference value :  8.16511e-07
 Reference value :  1.00000e-06
 Reference value :  1.00003e-06
 Reference value :  1.00011e-06
 Reference value :  1.00022e-06
 Reference value :  1.00083e-06
 Reference value :  1.00158e-06
 Reference value :  1.00242e-06
 Reference value :  1.00342e-06
 Reference value :  1.00439e-06
 Reference value :  1.00533e-06
 Reference value :  1.00757e-06
 Reference value :  1.00933e-06
 Reference value :  1.01018e-06
 Reference value :  1.01192e-06
 Reference value :  1.01353e-06
 Reference value :  1.01528e-06
 Reference value :  1.01722e-06
 Reference value :  1.02046e-06
 Reference value :  1.03740e-06
 Reference value :  1.19984e-06
 Reference value :  1.25010e-06
 Reference value :  1.25013e-06
 Reference value :  1.25020e-06
 Reference value :  1.25022e-06
 Reference value :  1.25045e-06
 Reference value :  1.25140e-06
 Reference value :  1.25300e-06
 Reference value :  1.25398e-06
 Reference value :  1.25606e-06
 Reference value :  1.27175e-06
 Reference value :  1.50000e-06
 Reference value :  1.50011e-06
 Reference value :  1.50052e-06
 Reference value :  1.50158e-06
 Reference value :  1.50290e-06
 Reference value :  1.50399e-06
 Reference value :  1.50552e-06
 Reference value :  1.50616e-06
 Reference value :  1.50771e-06
 Reference value :  1.51086e-06
 Reference value :  1.53025e-06
 Reference value :  1.75010e-06
 Reference value :  1.75017e-06
 Reference value :  1.75022e-06
 Reference value :  1.75032e-06
 Reference value :  1.75098e-06
 Reference value :  1.75186e-06
 Reference value :  1.75299e-06
 Reference value :  1.75398e-06
 Reference value :  1.75503e-06
 Reference value :  1.75662e-06
 Reference value :  1.76997e-06
 Reference value :  1.95951e-06
 Reference value :  2.00003e-06
 Reference value :  2.00012e-06
 Reference value :  2.00052e-06
 Reference value :  2.00119e-06
 Reference value :  2.00201e-06
 Reference value :  2.00341e-06
 Reference value :  2.00450e-06
 Reference value :  2.00500e-06
 Reference value :  2.00709e-06
 Reference value :  2.01120e-06
 Reference value :  2.01323e-06
 Reference value :  2.01525e-06
 Reference value :  2.01914e-06
 Reference value :  2.02882e-06
 Reference value :  2.03733e-06
 Reference value :  2.04088e-06
 Reference value :  2.04762e-06
 Reference value :  2.06289e-06
 Reference value :  2.10259e-06
 Reference value :  2.25010e-06
 Reference value :  2.25020e-06
 Reference value :  2.25026e-06
 Reference value :  2.25069e-06
 Reference value :  2.25140e-06
 Reference value :  2.25230e-06
 Reference value :  2.25299e-06
 Reference value :  2.25344e-06
 Reference value :  2.25455e-06
 Reference value :  2.25595e-06
 Reference value :  2.26495e-06
 Reference value :  2.31362e-06
 Reference value :  2.50000e-06
 Reference value :  2.50007e-06
 Reference value :  2.50016e-06
 Reference value :  2.50052e-06
 Reference value :  2.50119e-06
 Reference value :  2.50195e-06
 Reference value :  2.50282e-06
 Reference value :  2.50464e-06
 Reference value :  2.50598e-06
 Reference value :  2.50749e-06
 Reference value :  2.50924e-06
 Reference value :  2.51366e-06
 Reference value :  2.54873e-06
 Reference value :  2.75011e-06
 Reference value :  2.75021e-06
 Reference value :  2.75045e-06
 Reference value :  2.75140e-06
 Reference value :  2.75299e-06
 Reference value :  2.75397e-06
 Reference value :  2.75502e-06
 Reference value :  2.75580e-06
 Reference value :  2.75661e-06
 Reference value :  2.75752e-06
 Reference value :  2.75965e-06
 Reference value :  2.76746e-06
 Reference value :  2.82044e-06
 Reference value :  3.00000e-06
 Reference value :  3.00003e-06
 Reference value :  3.00010e-06
 Reference value :  3.00012e-06
 Reference value :  3.00022e-06
 Reference value :  3.00052e-06
 Reference value :  3.00119e-06
 Reference value :  3.00158e-06
 Reference value :  3.00242e-06
 Reference value :  3.00342e-06
 Reference value :  3.00390e-06
 Reference value :  3.00484e-06
 Reference value :  3.00664e-06
 Reference value :  3.00758e-06
 Reference value :  3.00928e-06
 Reference value :  3.01112e-06
 Reference value :  3.01357e-06
 Reference value :  3.01636e-06
 Reference value :  3.02434e-06
 Reference value :  3.07693e-06
 Reference value :  3.14735e-06
 Reference value :  3.25010e-06
 Reference value :  3.25017e-06
 Reference value :  3.25026e-06
 Reference value :  3.25098e-06
 Reference value :  3.25186e-06
 Reference value :  3.25299e-06
 Reference value :  3.25396e-06
 Reference value :  3.25601e-06
 Reference value :  3.28750e-06
 Reference value :  3.50001e-06
 Reference value :  3.50011e-06
 Reference value :  3.50034e-06
 Reference value :  3.50119e-06
 Reference value :  3.50195e-06
 Reference value :  3.50282e-06
 Reference value :  3.50389e-06
 Reference value :  3.50536e-06
 Reference value :  3.50598e-06
 Reference value :  3.50749e-06
 Reference value :  3.51029e-06
 Reference value :  3.58075e-06
 Reference value :  3.75020e-06
 Reference value :  3.75045e-06
 Reference value :  3.75140e-06
 Reference value :  3.75299e-06
 Reference value :  3.75397e-06
 Reference value :  3.75502e-06
 Reference value :  3.75750e-06
 Reference value :  3.76104e-06
 Reference value :  3.78971e-06
 Reference value :  4.00001e-06
 Reference value :  4.00011e-06
 Reference value :  4.00034e-06
 Reference value :  4.00119e-06
 Reference value :  4.00242e-06
 Reference value :  4.00390e-06
 Reference value :  4.00484e-06
 Reference value :  4.00758e-06
 Reference value :  4.01016e-06
 Reference value :  4.01191e-06
 Reference value :  4.01356e-06
 Reference value :  4.01533e-06
 Reference value :  4.01734e-06
 Reference value :  4.02418e-06
 Reference value :  4.04886e-06
 Reference value :  4.06464e-06
 Reference value :  4.06850e-06
 Reference value :  4.07688e-06
 Reference value :  4.10532e-06
 Reference value :  4.22914e-06
 Reference value :  4.25010e-06
 Reference value :  4.25013e-06
 Reference value :  4.25020e-06
 Reference value :  4.25026e-06
 Reference value :  4.25069e-06
 Reference value :  4.25140e-06
 Reference value :  4.25299e-06
 Reference value :  4.25395e-06
 Reference value :  4.25733e-06
 Reference value :  4.27194e-06
 Reference value :  4.30600e-06
 Reference value :  4.50000e-06
 Reference value :  4.50010e-06
 Reference value :  4.50022e-06
 Reference value :  4.50083e-06
 Reference value :  4.50154e-06
 Reference value :  4.50195e-06
 Reference value :  4.50282e-06
 Reference value :  4.50389e-06
 Reference value :  4.50536e-06
 Reference value :  4.50664e-06
 Reference value :  4.50839e-06
 Reference value :  4.51028e-06
 Reference value :  4.51672e-06
 Reference value :  4.58006e-06
 Reference value :  4.75017e-06
 Reference value :  4.75045e-06
 Reference value :  4.75140e-06
 Reference value :  4.75299e-06
 Reference value :  4.75397e-06
 Reference value :  4.75502e-06
 Reference value :  4.75660e-06
 Reference value :  4.75962e-06
 Reference value :  4.81918e-06
 Reference value :  5.00003e-06
 Reference value :  5.00022e-06
 Reference value :  5.00158e-06
 Reference value :  5.00290e-06
 Reference value :  5.00440e-06
 Reference value :  5.00593e-06
 Reference value :  5.00758e-06
 Reference value :  5.00928e-06
 Reference value :  5.01111e-06
 Reference value :  5.01354e-06
 Reference value :  5.01629e-06
 Reference value :  5.02403e-06
 Reference value :  5.02975e-06
 Reference value :  5.03748e-06
 Reference value :  5.07103e-06
 Reference value :  5.15723e-06
 Reference value :  5.25017e-06
 Reference value :  5.25032e-06
 Reference value :  5.25098e-06
 Reference value :  5.25186e-06
 Reference value :  5.25299e-06
 Reference value :  5.25460e-06
 Reference value :  5.25888e-06
 Reference value :  5.31525e-06
 Reference value :  5.50003e-06
 Reference value :  5.50012e-06
 Reference value :  5.50052e-06
 Reference value :  5.50158e-06
 Reference value :  5.50290e-06
 Reference value :  5.50474e-06
 Reference value :  5.50616e-06
 Reference value :  5.50771e-06
 Reference value :  5.51249e-06
 Reference value :  5.54749e-06
 Reference value :  5.75011e-06
 Reference value :  5.75020e-06
 Reference value :  5.75026e-06
 Reference value :  5.75069e-06
 Reference value :  5.75140e-06
 Reference value :  5.75299e-06
 Reference value :  5.75344e-06
 Reference value :  5.75448e-06
 Reference value :  5.75579e-06
 Reference value :  5.76358e-06
 Reference value :  5.85690e-06
 Reference value :  6.00003e-06
 Reference value :  6.00011e-06
 Reference value :  6.00022e-06
 Reference value :  6.00083e-06
 Reference value :  6.00158e-06
 Reference value :  6.00289e-06
 Reference value :  6.00396e-06
 Reference value :  6.00500e-06
 Reference value :  6.00709e-06
 Reference value :  6.01120e-06
 Reference value :  6.01322e-06
 Reference value :  6.01536e-06
 Reference value :  6.01929e-06
 Reference value :  6.03663e-06
 Reference value :  6.12420e-06
 Reference value :  6.25013e-06
 Reference value :  6.25021e-06
 Reference value :  6.25045e-06
 Reference value :  6.25098e-06
 Reference value :  6.25140e-06
 Reference value :  6.25299e-06
 Reference value :  6.25398e-06
 Reference value :  6.25523e-06
 Reference value :  6.26162e-06
 Reference value :  6.28671e-06
 Reference value :  6.50000e-06
 Reference value :  6.50007e-06
 Reference value :  6.50012e-06
 Reference value :  6.50034e-06
 Reference value :  6.50083e-06
 Reference value :  6.50158e-06
 Reference value :  6.50242e-06
 Reference value :  6.50342e-06
 Reference value :  6.50474e-06
 Reference value :  6.50616e-06
 Reference value :  6.50771e-06
 Reference value :  6.50956e-06
 Reference value :  6.51551e-06
 Reference value :  6.54736e-06
 Reference value :  6.75010e-06
 Reference value :  6.75017e-06
 Reference value :  6.75022e-06
 Reference value :  6.75045e-06
 Reference value :  6.75098e-06
 Reference value :  6.75139e-06
 Reference value :  6.75229e-06
 Reference value :  6.75299e-06
 Reference value :  6.75344e-06
 Reference value :  6.75448e-06
 Reference value :  6.75579e-06
 Reference value :  6.75823e-06
 Reference value :  6.76361e-06
 Reference value :  6.78240e-06
 Reference value :  6.95779e-06
 Reference value :  7.00003e-06
 Reference value :  7.00010e-06
 Reference value :  7.00012e-06
 Reference value :  7.00022e-06
 Reference value :  7.00034e-06
 Reference value :  7.00083e-06
 Reference value :  7.00119e-06
 Reference value :  7.00158e-06
 Reference value :  7.00201e-06
 Reference value :  7.00289e-06
 Reference value :  7.00396e-06
 Reference value :  7.00450e-06
 Reference value :  7.00500e-06
 Reference value :  7.00631e-06
 Reference value :  7.00847e-06
 Reference value :  7.01120e-06
 Reference value :  7.01428e-06
 Reference value :  7.01737e-06
 Reference value :  7.02391e-06
 Reference value :  7.04977e-06
 Reference value :  7.15526e-06
 Reference value :  7.25011e-06
 Reference value :  7.25017e-06
 Reference value :  7.25021e-06
 Reference value :  7.25032e-06
 Reference value :  7.25069e-06
 Reference value :  7.25140e-06
 Reference value :  7.25229e-06
 Reference value :  7.25345e-06
 Reference value :  7.25461e-06
 Reference value :  7.25889e-06
 Reference value :  7.28673e-06
 Reference value :  7.48757e-06
 Reference value :  7.50003e-06
 Reference value :  7.50010e-06
 Reference value :  7.50012e-06
 Reference value :  7.50022e-06
 Reference value :  7.50083e-06
 Reference value :  7.50158e-06
 Reference value :  7.50289e-06
 Reference value :  7.50399e-06
 Reference value :  7.50552e-06
 Reference value :  7.50615e-06
 Reference value :  7.50771e-06
 Reference value :  7.51087e-06
 Reference value :  7.52900e-06
 Reference value :  7.64538e-06
 Reference value :  7.75013e-06
 Reference value :  7.75021e-06
 Reference value :  7.75032e-06
 Reference value :  7.75098e-06
 Reference value :  7.75186e-06
 Reference value :  7.75299e-06
 Reference value :  7.75397e-06
 Reference value :  7.75501e-06
 Reference value :  7.75660e-06
 Reference value :  7.76982e-06
 Reference value :  7.85716e-06
 Reference value :  8.00003e-06
 Reference value :  8.00011e-06
 Reference value :  8.00022e-06
 Reference value :  8.00083e-06
 Reference value :  8.00158e-06
 Reference value :  8.00242e-06
 Reference value :  8.00341e-06
 Reference value :  8.00451e-06
 Reference value :  8.00502e-06
 Reference value :  8.00639e-06
 Reference value :  8.00794e-06
 Reference value :  8.00982e-06
 Reference value :  8.02260e-06
 Reference value :  8.12005e-06
 Reference value :  8.25011e-06
 Reference value :  8.25020e-06
 Reference value :  8.25032e-06
 Reference value :  8.25070e-06
 Reference value :  8.25139e-06
 Reference value :  8.25298e-06
 Reference value :  8.25452e-06
 Reference value :  8.25535e-06
 Reference value :  8.25767e-06
 Reference value :  8.29144e-06
 Reference value :  8.50003e-06
 Reference value :  8.50012e-06
 Reference value :  8.50059e-06
 Reference value :  8.50135e-06
 Reference value :  8.50228e-06
 Reference value :  8.50335e-06
 Reference value :  8.50438e-06
 Reference value :  8.50548e-06
 Reference value :  8.51166e-06
 Reference value :  8.52169e-06
 Reference value :  8.52581e-06
 Reference value :  8.52876e-06
 Reference value :  8.53085e-06
 Reference value :  8.53454e-06
 Reference value :  8.53593e-06
 Reference value :  8.53733e-06
 Reference value :  8.53868e-06
 Reference value :  8.53962e-06
 Reference value :  8.54321e-06
 Reference value :  8.55442e-06
 Reference value :  8.56501e-06
 Reference value :  8.62880e-06
 Reference value :  8.75011e-06
 Reference value :  8.75020e-06
 Reference value :  8.75026e-06
 Reference value :  8.75069e-06
 Reference value :  8.75139e-06
 Reference value :  8.75229e-06
 Reference value :  8.75297e-06
 Reference value :  8.75343e-06
 Reference value :  8.75457e-06
 Reference value :  8.75593e-06
 Reference value :  8.76149e-06
 Reference value :  8.78546e-06
 Reference value :  8.80362e-06
 Reference value :  8.82210e-06
 Reference value :  8.83478e-06
 Reference value :  8.84471e-06
 Reference value :  8.86262e-06
 Reference value :  8.87536e-06
 Reference value :  8.91901e-06
 Reference value :  9.00000e-06
No. of Data Rows : 1324
ngspice-44 done
