
Note: Compatibility modes selected: hs a


Circuit: ** sch_path: /home/audrey/cace/sar-adc-using-sky130-pdk/runs/run_2025-08-29_19-02-33/parameters/power/run_1/power_consumption.sch

option SCALE: Scale is set to 1e-06 for instance and model parameters
option SCALE: Scale is set to 1e-06 for instance and model parameters
option SCALE: Scale is set to 1e-06 for instance and model parameters
option SCALE: Scale is set to 1e-06 for instance and model parameters
Doing analysis at TEMP = 27.000000 and TNOM = 27.000000

Using KLU as Direct Linear Solver
Operating point simulation skipped by 'uic',
  now using transient initial conditions.
 Reference value :  5.00000e-12
 Reference value :  5.13379e-12
 Reference value :  5.40136e-12
 Reference value :  5.93652e-12
 Reference value :  7.00682e-12
 Reference value :  8.86852e-12
 Reference value :  1.19292e-11
 Reference value :  1.74735e-11
 Reference value :  2.82199e-11
 Reference value :  4.16685e-11
 Reference value :  6.65126e-11
 Reference value :  9.63255e-11
 Reference value :  1.48779e-10
 Reference value :  2.10984e-10
 Reference value :  3.32217e-10
 Reference value :  4.70614e-10
 Reference value :  5.00000e-10
 Reference value :  5.03913e-10
 Reference value :  5.11739e-10
 Reference value :  5.27391e-10
 Reference value :  5.58695e-10
 Reference value :  6.21304e-10
 Reference value :  7.46521e-10
 Reference value :  9.96954e-10
 Reference value :  1.49782e-09
 Reference value :  2.49956e-09
 Reference value :  4.29447e-09
 Reference value :  6.14523e-09
 Reference value :  9.84676e-09
 Reference value :  1.62406e-08
 Reference value :  2.42481e-08
 Reference value :  3.67910e-08
 Reference value :  5.21766e-08
 Reference value :  8.00271e-08
 Reference value :  1.21957e-07
 Reference value :  2.05817e-07
 Reference value :  3.73538e-07
 Reference value :  5.00000e-07
 Reference value :  5.33544e-07
 Reference value :  6.00632e-07
 Reference value :  7.34808e-07
 Reference value :  1.00050e-06
 Reference value :  1.00055e-06
 Reference value :  1.00065e-06
 Reference value :  1.00085e-06
 Reference value :  1.00100e-06
 Reference value :  1.00103e-06
 Reference value :  1.00110e-06
 Reference value :  1.00124e-06
 Reference value :  1.00151e-06
 Reference value :  1.00198e-06
 Reference value :  1.00253e-06
 Reference value :  1.00338e-06
 Reference value :  1.00465e-06
 Reference value :  1.00691e-06
 Reference value :  1.01003e-06
 Reference value :  1.01626e-06
 Reference value :  1.02546e-06
 Reference value :  1.03414e-06
 Reference value :  1.04375e-06
 Reference value :  1.05371e-06
 Reference value :  1.06449e-06
 Reference value :  1.07421e-06
 Reference value :  1.08467e-06
 Reference value :  1.09585e-06
 Reference value :  1.10783e-06
 Reference value :  1.12230e-06
 Reference value :  1.13588e-06
 Reference value :  1.14837e-06
 Reference value :  1.15763e-06
 Reference value :  1.16725e-06
 Reference value :  1.17659e-06
 Reference value :  1.18384e-06
 Reference value :  1.19157e-06
 Reference value :  1.19880e-06
 Reference value :  1.20458e-06
 Reference value :  1.21076e-06
 Reference value :  1.21933e-06
 Reference value :  1.22776e-06
 Reference value :  1.23670e-06
 Reference value :  1.24677e-06
 Reference value :  1.25504e-06
 Reference value :  1.26366e-06
 Reference value :  1.27081e-06
 Reference value :  1.27836e-06
 Reference value :  1.28813e-06
 Reference value :  1.29805e-06
 Reference value :  1.31234e-06
 Reference value :  1.32976e-06
 Reference value :  1.34697e-06
 Reference value :  1.36575e-06
 Reference value :  1.38026e-06
 Reference value :  1.39577e-06
 Reference value :  1.40524e-06
 Reference value :  1.41509e-06
 Reference value :  1.42290e-06
 Reference value :  1.43306e-06
 Reference value :  1.45338e-06
 Reference value :  1.47637e-06
 Reference value :  1.52091e-06
 Reference value :  1.55768e-06
 Reference value :  1.59708e-06
 Reference value :  1.63452e-06
 Reference value :  1.68121e-06
 Reference value :  1.68447e-06
 Reference value :  1.69099e-06
 Reference value :  1.70404e-06
 Reference value :  1.73013e-06
 Reference value :  1.77319e-06
 Reference value :  1.81221e-06
 Reference value :  1.84889e-06
 Reference value :  1.89188e-06
 Reference value :  1.94285e-06
 Reference value :  1.98516e-06
 Reference value :  2.00000e-06
 Reference value :  2.00005e-06
 Reference value :  2.00015e-06
 Reference value :  2.00035e-06
 Reference value :  2.00050e-06
 Reference value :  2.00051e-06
 Reference value :  2.00053e-06
 Reference value :  2.00056e-06
 Reference value :  2.00064e-06
 Reference value :  2.00078e-06
 Reference value :  2.00108e-06
 Reference value :  2.00167e-06
 Reference value :  2.00284e-06
 Reference value :  2.00411e-06
 Reference value :  2.00610e-06
 Reference value :  2.00922e-06
 Reference value :  2.01303e-06
 Reference value :  2.01752e-06
 Reference value :  2.02348e-06
 Reference value :  2.03541e-06
 Reference value :  2.05483e-06
 Reference value :  2.09365e-06
 Reference value :  2.16569e-06
 Reference value :  2.26750e-06
 Reference value :  2.40651e-06
 Reference value :  2.62101e-06
 Reference value :  2.97016e-06
 Reference value :  3.00050e-06
 Reference value :  3.00055e-06
 Reference value :  3.00065e-06
 Reference value :  3.00085e-06
 Reference value :  3.00100e-06
 Reference value :  3.00103e-06
 Reference value :  3.00109e-06
 Reference value :  3.00120e-06
 Reference value :  3.00143e-06
 Reference value :  3.00182e-06
 Reference value :  3.00218e-06
 Reference value :  3.00277e-06
 Reference value :  3.00354e-06
 Reference value :  3.00507e-06
 Reference value :  3.00815e-06
 Reference value :  3.01431e-06
 Reference value :  3.02663e-06
 Reference value :  3.05126e-06
 Reference value :  3.08149e-06
 Reference value :  3.12961e-06
 Reference value :  3.19026e-06
 Reference value :  3.27673e-06
 Reference value :  3.39877e-06
 Reference value :  3.64283e-06
 Reference value :  3.64815e-06
 Reference value :  3.65877e-06
 Reference value :  3.68002e-06
 Reference value :  3.72252e-06
 Reference value :  3.80752e-06
 Reference value :  3.88786e-06
 Reference value :  3.95629e-06
 Reference value :  4.00000e-06
 Reference value :  4.00005e-06
 Reference value :  4.00015e-06
 Reference value :  4.00035e-06
 Reference value :  4.00050e-06
 Reference value :  4.00051e-06
 Reference value :  4.00053e-06
 Reference value :  4.00056e-06
 Reference value :  4.00063e-06
 Reference value :  4.00077e-06
 Reference value :  4.00106e-06
 Reference value :  4.00162e-06
 Reference value :  4.00276e-06
 Reference value :  4.00407e-06
 Reference value :  4.00605e-06
 Reference value :  4.00911e-06
 Reference value :  4.01282e-06
 Reference value :  4.01772e-06
 Reference value :  4.02322e-06
 Reference value :  4.03422e-06
 Reference value :  4.05622e-06
 Reference value :  4.10023e-06
 Reference value :  4.17604e-06
 Reference value :  4.25213e-06
 Reference value :  4.31695e-06
 Reference value :  4.36693e-06
 Reference value :  4.41817e-06
 Reference value :  4.47445e-06
 Reference value :  4.53314e-06
 Reference value :  4.62058e-06
 Reference value :  4.71964e-06
 Reference value :  4.86106e-06
 Reference value :  5.00050e-06
 Reference value :  5.00055e-06
 Reference value :  5.00065e-06
 Reference value :  5.00085e-06
 Reference value :  5.00100e-06
 Reference value :  5.00103e-06
 Reference value :  5.00109e-06
 Reference value :  5.00121e-06
 Reference value :  5.00146e-06
 Reference value :  5.00180e-06
 Reference value :  5.00217e-06
 Reference value :  5.00276e-06
 Reference value :  5.00358e-06
 Reference value :  5.00524e-06
 Reference value :  5.00855e-06
 Reference value :  5.01518e-06
 Reference value :  5.02842e-06
 Reference value :  5.05435e-06
 Reference value :  5.08396e-06
 Reference value :  5.13190e-06
 Reference value :  5.18518e-06
 Reference value :  5.25978e-06
 Reference value :  5.39882e-06
 Reference value :  5.59565e-06
 Reference value :  5.80492e-06
 Reference value :  5.94890e-06
 Reference value :  6.00000e-06
 Reference value :  6.00005e-06
 Reference value :  6.00015e-06
 Reference value :  6.00035e-06
 Reference value :  6.00050e-06
 Reference value :  6.00051e-06
 Reference value :  6.00054e-06
 Reference value :  6.00059e-06
 Reference value :  6.00069e-06
 Reference value :  6.00088e-06
 Reference value :  6.00128e-06
 Reference value :  6.00207e-06
 Reference value :  6.00366e-06
 Reference value :  6.00658e-06
 Reference value :  6.00950e-06
 Reference value :  6.01491e-06
 Reference value :  6.02079e-06
 Reference value :  6.03121e-06
 Reference value :  6.04178e-06
 Reference value :  6.05756e-06
 Reference value :  6.08913e-06
 Reference value :  6.13985e-06
 Reference value :  6.24128e-06
 Reference value :  6.43249e-06
 Reference value :  6.77322e-06
 Reference value :  7.00050e-06
 Reference value :  7.00055e-06
 Reference value :  7.00065e-06
 Reference value :  7.00085e-06
 Reference value :  7.00100e-06
 Reference value :  7.00103e-06
 Reference value :  7.00109e-06
 Reference value :  7.00121e-06
 Reference value :  7.00145e-06
 Reference value :  7.00176e-06
 Reference value :  7.00218e-06
 Reference value :  7.00277e-06
 Reference value :  7.00390e-06
 Reference value :  7.00614e-06
 Reference value :  7.01064e-06
 Reference value :  7.01964e-06
 Reference value :  7.03763e-06
 Reference value :  7.07362e-06
 Reference value :  7.14559e-06
 Reference value :  7.24674e-06
 Reference value :  7.40289e-06
 Reference value :  7.60761e-06
 Reference value :  7.85139e-06
 Reference value :  8.00000e-06
 Reference value :  8.00005e-06
 Reference value :  8.00015e-06
 Reference value :  8.00035e-06
 Reference value :  8.00050e-06
 Reference value :  8.00051e-06
 Reference value :  8.00054e-06
 Reference value :  8.00059e-06
 Reference value :  8.00069e-06
 Reference value :  8.00089e-06
 Reference value :  8.00129e-06
 Reference value :  8.00209e-06
 Reference value :  8.00369e-06
 Reference value :  8.00689e-06
 Reference value :  8.01008e-06
 Reference value :  8.01627e-06
 Reference value :  8.02302e-06
 Reference value :  8.03505e-06
 Reference value :  8.04976e-06
 Reference value :  8.06562e-06
 Reference value :  8.09733e-06
 Reference value :  8.16076e-06
 Reference value :  8.28762e-06
 Reference value :  8.53818e-06
 Reference value :  8.89405e-06
 Reference value :  9.00050e-06
 Reference value :  9.00055e-06
 Reference value :  9.00065e-06
 Reference value :  9.00085e-06
 Reference value :  9.00100e-06
 Reference value :  9.00103e-06
 Reference value :  9.00109e-06
 Reference value :  9.00121e-06
 Reference value :  9.00144e-06
 Reference value :  9.00176e-06
 Reference value :  9.00218e-06
 Reference value :  9.00277e-06
 Reference value :  9.00386e-06
 Reference value :  9.00603e-06
 Reference value :  9.01038e-06
 Reference value :  9.01909e-06
 Reference value :  9.03649e-06
 Reference value :  9.07131e-06
 Reference value :  9.10786e-06
 Reference value :  9.14186e-06
 Reference value :  9.17567e-06
 Reference value :  9.20645e-06
 Reference value :  9.23993e-06
 Reference value :  9.28379e-06
 Reference value :  9.32923e-06
 Reference value :  9.40334e-06
 Reference value :  9.49551e-06
 Reference value :  9.63668e-06
 Reference value :  9.84306e-06
 Reference value :  1.00000e-05
 Reference value :  1.00000e-05
 Reference value :  1.00001e-05
 Reference value :  1.00003e-05
 Reference value :  1.00005e-05
 Reference value :  1.00005e-05
 Reference value :  1.00005e-05
 Reference value :  1.00006e-05
 Reference value :  1.00006e-05
 Reference value :  1.00008e-05
 Reference value :  1.00011e-05
 Reference value :  1.00017e-05
 Reference value :  1.00029e-05
 Reference value :  1.00052e-05
 Reference value :  1.00077e-05
 Reference value :  1.00119e-05
 Reference value :  1.00174e-05
 Reference value :  1.00253e-05
 Reference value :  1.00357e-05
 Reference value :  1.00469e-05
 Reference value :  1.00692e-05
 Reference value :  1.01138e-05
 Reference value :  1.02030e-05
 Reference value :  1.03112e-05
 Reference value :  1.04938e-05
 Reference value :  1.07439e-05
 Reference value :  1.10005e-05
 Reference value :  1.10005e-05
 Reference value :  1.10006e-05
 Reference value :  1.10008e-05
 Reference value :  1.10010e-05
 Reference value :  1.10010e-05
 Reference value :  1.10011e-05
 Reference value :  1.10012e-05
 Reference value :  1.10015e-05
 Reference value :  1.10018e-05
 Reference value :  1.10022e-05
 Reference value :  1.10028e-05
 Reference value :  1.10039e-05
 Reference value :  1.10063e-05
 Reference value :  1.10109e-05
 Reference value :  1.10202e-05
 Reference value :  1.10387e-05
 Reference value :  1.10758e-05
 Reference value :  1.11313e-05
 Reference value :  1.12041e-05
 Reference value :  1.13069e-05
 Reference value :  1.14671e-05
 Reference value :  1.17059e-05
 Reference value :  1.19538e-05
 Reference value :  1.20000e-05
 Reference value :  1.20000e-05
 Reference value :  1.20001e-05
 Reference value :  1.20003e-05
 Reference value :  1.20005e-05
 Reference value :  1.20005e-05
 Reference value :  1.20005e-05
 Reference value :  1.20006e-05
 Reference value :  1.20007e-05
 Reference value :  1.20009e-05
 Reference value :  1.20013e-05
 Reference value :  1.20021e-05
 Reference value :  1.20037e-05
 Reference value :  1.20066e-05
 Reference value :  1.20095e-05
 Reference value :  1.20150e-05
 Reference value :  1.20210e-05
 Reference value :  1.20313e-05
 Reference value :  1.20421e-05
 Reference value :  1.20577e-05
 Reference value :  1.20888e-05
 Reference value :  1.21394e-05
 Reference value :  1.22406e-05
 Reference value :  1.23803e-05
 Reference value :  1.25445e-05
 Reference value :  1.27490e-05
 Reference value :  1.30005e-05
 Reference value :  1.30006e-05
 Reference value :  1.30007e-05
 Reference value :  1.30009e-05
 Reference value :  1.30010e-05
 Reference value :  1.30010e-05
 Reference value :  1.30011e-05
 Reference value :  1.30012e-05
 Reference value :  1.30014e-05
 Reference value :  1.30018e-05
 Reference value :  1.30022e-05
 Reference value :  1.30028e-05
 Reference value :  1.30038e-05
 Reference value :  1.30060e-05
 Reference value :  1.30103e-05
 Reference value :  1.30189e-05
 Reference value :  1.30360e-05
 Reference value :  1.30704e-05
 Reference value :  1.31391e-05
 Reference value :  1.32463e-05
 Reference value :  1.32656e-05
 Reference value :  1.33042e-05
 Reference value :  1.33542e-05
 Reference value :  1.33997e-05
 Reference value :  1.34290e-05
 Reference value :  1.34616e-05
 Reference value :  1.34916e-05
 Reference value :  1.35362e-05
 Reference value :  1.35913e-05
 Reference value :  1.36649e-05
 Reference value :  1.37713e-05
 Reference value :  1.39152e-05
 Reference value :  1.40000e-05
 Reference value :  1.40000e-05
 Reference value :  1.40002e-05
 Reference value :  1.40004e-05
 Reference value :  1.40005e-05
 Reference value :  1.40005e-05
 Reference value :  1.40005e-05
 Reference value :  1.40006e-05
 Reference value :  1.40007e-05
 Reference value :  1.40009e-05
 Reference value :  1.40013e-05
 Reference value :  1.40021e-05
 Reference value :  1.40037e-05
 Reference value :  1.40069e-05
 Reference value :  1.40102e-05
 Reference value :  1.40162e-05
 Reference value :  1.40229e-05
 Reference value :  1.40337e-05
 Reference value :  1.40466e-05
 Reference value :  1.40626e-05
 Reference value :  1.40946e-05
 Reference value :  1.41534e-05
 Reference value :  1.42615e-05
 Reference value :  1.44172e-05
 Reference value :  1.45960e-05
 Reference value :  1.48804e-05
 Reference value :  1.50005e-05
 Reference value :  1.50005e-05
 Reference value :  1.50007e-05
 Reference value :  1.50009e-05
 Reference value :  1.50010e-05
 Reference value :  1.50010e-05
 Reference value :  1.50011e-05
 Reference value :  1.50012e-05
 Reference value :  1.50014e-05
 Reference value :  1.50018e-05
 Reference value :  1.50022e-05
 Reference value :  1.50028e-05
 Reference value :  1.50039e-05
 Reference value :  1.50060e-05
 Reference value :  1.50104e-05
 Reference value :  1.50191e-05
 Reference value :  1.50364e-05
 Reference value :  1.50711e-05
 Reference value :  1.51406e-05
 Reference value :  1.52446e-05
 Reference value :  1.53673e-05
 Reference value :  1.54812e-05
 Reference value :  1.55516e-05
 Reference value :  1.56204e-05
 Reference value :  1.56861e-05
 Reference value :  1.57578e-05
 Reference value :  1.58507e-05
 Reference value :  1.59533e-05
 Reference value :  1.60000e-05
 Reference value :  1.60000e-05
 Reference value :  1.60001e-05
 Reference value :  1.60004e-05
 Reference value :  1.60005e-05
 Reference value :  1.60005e-05
 Reference value :  1.60005e-05
 Reference value :  1.60006e-05
 Reference value :  1.60007e-05
 Reference value :  1.60008e-05
 Reference value :  1.60012e-05
 Reference value :  1.60018e-05
 Reference value :  1.60032e-05
 Reference value :  1.60059e-05
 Reference value :  1.60113e-05
 Reference value :  1.60222e-05
 Reference value :  1.60438e-05
 Reference value :  1.60753e-05
 Reference value :  1.61095e-05
 Reference value :  1.61780e-05
 Reference value :  1.63026e-05
 Reference value :  1.64328e-05
 Reference value :  1.65690e-05
 Reference value :  1.68414e-05
 Reference value :  1.70005e-05
 Reference value :  1.70006e-05
 Reference value :  1.70007e-05
 Reference value :  1.70009e-05
 Reference value :  1.70010e-05
 Reference value :  1.70010e-05
 Reference value :  1.70011e-05
 Reference value :  1.70012e-05
 Reference value :  1.70014e-05
 Reference value :  1.70018e-05
 Reference value :  1.70022e-05
 Reference value :  1.70028e-05
 Reference value :  1.70038e-05
 Reference value :  1.70060e-05
 Reference value :  1.70102e-05
 Reference value :  1.70187e-05
 Reference value :  1.70357e-05
 Reference value :  1.70697e-05
 Reference value :  1.71377e-05
 Reference value :  1.72456e-05
 Reference value :  1.73976e-05
 Reference value :  1.76349e-05
 Reference value :  1.80000e-05
 Reference value :  1.80001e-05
 Reference value :  1.80002e-05
 Reference value :  1.80004e-05
 Reference value :  1.80005e-05
 Reference value :  1.80005e-05
 Reference value :  1.80005e-05
 Reference value :  1.80006e-05
 Reference value :  1.80007e-05
 Reference value :  1.80008e-05
 Reference value :  1.80012e-05
 Reference value :  1.80018e-05
 Reference value :  1.80032e-05
 Reference value :  1.80059e-05
 Reference value :  1.80113e-05
 Reference value :  1.80222e-05
 Reference value :  1.80439e-05
 Reference value :  1.80764e-05
 Reference value :  1.81106e-05
 Reference value :  1.81790e-05
 Reference value :  1.82973e-05
 Reference value :  1.84208e-05
 Reference value :  1.85607e-05
 Reference value :  1.87960e-05
 Reference value :  1.90005e-05
 Reference value :  1.90006e-05
 Reference value :  1.90007e-05
 Reference value :  1.90009e-05
 Reference value :  1.90010e-05
 Reference value :  1.90010e-05
 Reference value :  1.90011e-05
 Reference value :  1.90012e-05
 Reference value :  1.90014e-05
 Reference value :  1.90018e-05
 Reference value :  1.90022e-05
 Reference value :  1.90028e-05
 Reference value :  1.90038e-05
 Reference value :  1.90060e-05
 Reference value :  1.90102e-05
 Reference value :  1.90187e-05
 Reference value :  1.90357e-05
 Reference value :  1.90697e-05
 Reference value :  1.91377e-05
 Reference value :  1.92167e-05
 Reference value :  1.92747e-05
 Reference value :  1.93316e-05
 Reference value :  1.93744e-05
 Reference value :  1.94260e-05
 Reference value :  1.94933e-05
 Reference value :  1.95541e-05
 Reference value :  1.96553e-05
 Reference value :  1.97608e-05
 Reference value :  1.99678e-05
 Reference value :  2.00000e-05
 Reference value :  2.00001e-05
 Reference value :  2.00002e-05
 Reference value :  2.00004e-05
 Reference value :  2.00005e-05
 Reference value :  2.00005e-05
 Reference value :  2.00005e-05
 Reference value :  2.00006e-05
 Reference value :  2.00007e-05
 Reference value :  2.00008e-05
 Reference value :  2.00012e-05
 Reference value :  2.00018e-05
 Reference value :  2.00032e-05
 Reference value :  2.00059e-05
 Reference value :  2.00113e-05
 Reference value :  2.00222e-05
 Reference value :  2.00438e-05
 Reference value :  2.00767e-05
 Reference value :  2.01109e-05
 Reference value :  2.01793e-05
 Reference value :  2.02401e-05
 Reference value :  2.03146e-05
 Reference value :  2.03876e-05
 Reference value :  2.04710e-05
 Reference value :  2.06130e-05
 Reference value :  2.07678e-05
 Reference value :  2.09558e-05
 Reference value :  2.10005e-05
 Reference value :  2.10005e-05
 Reference value :  2.10006e-05
 Reference value :  2.10008e-05
 Reference value :  2.10010e-05
 Reference value :  2.10010e-05
 Reference value :  2.10011e-05
 Reference value :  2.10012e-05
 Reference value :  2.10014e-05
 Reference value :  2.10018e-05
 Reference value :  2.10022e-05
 Reference value :  2.10028e-05
 Reference value :  2.10038e-05
 Reference value :  2.10060e-05
 Reference value :  2.10103e-05
 Reference value :  2.10188e-05
 Reference value :  2.10360e-05
 Reference value :  2.10703e-05
 Reference value :  2.11389e-05
 Reference value :  2.12525e-05
 Reference value :  2.14095e-05
 Reference value :  2.16591e-05
 Reference value :  2.19244e-05
 Reference value :  2.20000e-05
 Reference value :  2.20000e-05
 Reference value :  2.20001e-05
 Reference value :  2.20004e-05
 Reference value :  2.20005e-05
 Reference value :  2.20005e-05
 Reference value :  2.20005e-05
 Reference value :  2.20006e-05
 Reference value :  2.20007e-05
 Reference value :  2.20008e-05
 Reference value :  2.20012e-05
 Reference value :  2.20018e-05
 Reference value :  2.20032e-05
 Reference value :  2.20059e-05
 Reference value :  2.20113e-05
 Reference value :  2.20222e-05
 Reference value :  2.20438e-05
 Reference value :  2.20767e-05
 Reference value :  2.21109e-05
 Reference value :  2.21793e-05
 Reference value :  2.22969e-05
 Reference value :  2.24199e-05
 Reference value :  2.25616e-05
 Reference value :  2.27931e-05
 Reference value :  2.30005e-05
 Reference value :  2.30005e-05
 Reference value :  2.30006e-05
 Reference value :  2.30008e-05
 Reference value :  2.30010e-05
 Reference value :  2.30010e-05
 Reference value :  2.30011e-05
 Reference value :  2.30012e-05
 Reference value :  2.30014e-05
 Reference value :  2.30018e-05
 Reference value :  2.30022e-05
 Reference value :  2.30028e-05
 Reference value :  2.30038e-05
 Reference value :  2.30060e-05
 Reference value :  2.30102e-05
 Reference value :  2.30187e-05
 Reference value :  2.30357e-05
 Reference value :  2.30698e-05
 Reference value :  2.31378e-05
 Reference value :  2.32539e-05
 Reference value :  2.34120e-05
 Reference value :  2.36663e-05
 Reference value :  2.40000e-05
 Reference value :  2.40001e-05
 Reference value :  2.40002e-05
 Reference value :  2.40004e-05
 Reference value :  2.40005e-05
 Reference value :  2.40005e-05
 Reference value :  2.40005e-05
 Reference value :  2.40006e-05
 Reference value :  2.40007e-05
 Reference value :  2.40008e-05
 Reference value :  2.40012e-05
 Reference value :  2.40018e-05
 Reference value :  2.40032e-05
 Reference value :  2.40059e-05
 Reference value :  2.40113e-05
 Reference value :  2.40222e-05
 Reference value :  2.40439e-05
 Reference value :  2.40780e-05
 Reference value :  2.41117e-05
 Reference value :  2.41792e-05
 Reference value :  2.42984e-05
 Reference value :  2.44221e-05
 Reference value :  2.45625e-05
 Reference value :  2.47976e-05
 Reference value :  2.50005e-05
 Reference value :  2.50005e-05
 Reference value :  2.50006e-05
 Reference value :  2.50008e-05
 Reference value :  2.50010e-05
 Reference value :  2.50010e-05
 Reference value :  2.50011e-05
 Reference value :  2.50012e-05
 Reference value :  2.50014e-05
 Reference value :  2.50018e-05
 Reference value :  2.50022e-05
 Reference value :  2.50028e-05
 Reference value :  2.50038e-05
 Reference value :  2.50060e-05
 Reference value :  2.50102e-05
 Reference value :  2.50187e-05
 Reference value :  2.50357e-05
 Reference value :  2.50698e-05
 Reference value :  2.51378e-05
 Reference value :  2.52549e-05
 Reference value :  2.54136e-05
 Reference value :  2.56699e-05
 Reference value :  2.60000e-05
 Reference value :  2.60001e-05
 Reference value :  2.60002e-05
 Reference value :  2.60004e-05
 Reference value :  2.60005e-05
 Reference value :  2.60005e-05
 Reference value :  2.60005e-05
 Reference value :  2.60006e-05
 Reference value :  2.60007e-05
 Reference value :  2.60008e-05
 Reference value :  2.60012e-05
 Reference value :  2.60018e-05
 Reference value :  2.60032e-05
 Reference value :  2.60059e-05
 Reference value :  2.60113e-05
 Reference value :  2.60222e-05
 Reference value :  2.60439e-05
 Reference value :  2.60791e-05
 Reference value :  2.61125e-05
 Reference value :  2.61794e-05
 Reference value :  2.62991e-05
 Reference value :  2.64229e-05
 Reference value :  2.65632e-05
 Reference value :  2.67987e-05
 Reference value :  2.70005e-05
 Reference value :  2.70006e-05
 Reference value :  2.70007e-05
 Reference value :  2.70009e-05
 Reference value :  2.70010e-05
 Reference value :  2.70010e-05
 Reference value :  2.70011e-05
 Reference value :  2.70012e-05
 Reference value :  2.70014e-05
 Reference value :  2.70018e-05
 Reference value :  2.70022e-05
 Reference value :  2.70028e-05
 Reference value :  2.70038e-05
 Reference value :  2.70060e-05
 Reference value :  2.70102e-05
 Reference value :  2.70187e-05
 Reference value :  2.70357e-05
 Reference value :  2.70698e-05
 Reference value :  2.71378e-05
 Reference value :  2.72554e-05
 Reference value :  2.74145e-05
 Reference value :  2.76719e-05
 Reference value :  2.80000e-05
 Reference value :  2.80000e-05
 Reference value :  2.80001e-05
 Reference value :  2.80004e-05
 Reference value :  2.80005e-05
 Reference value :  2.80005e-05
 Reference value :  2.80005e-05
 Reference value :  2.80006e-05
 Reference value :  2.80007e-05
 Reference value :  2.80008e-05
 Reference value :  2.80012e-05
 Reference value :  2.80018e-05
 Reference value :  2.80032e-05
 Reference value :  2.80059e-05
 Reference value :  2.80113e-05
 Reference value :  2.80222e-05
 Reference value :  2.80439e-05
 Reference value :  2.80797e-05
 Reference value :  2.81130e-05
 Reference value :  2.81795e-05
 Reference value :  2.82997e-05
 Reference value :  2.84236e-05
 Reference value :  2.85639e-05
 Reference value :  2.87998e-05
 Reference value :  2.90005e-05
 Reference value :  2.90006e-05
 Reference value :  2.90007e-05
 Reference value :  2.90009e-05
 Reference value :  2.90010e-05
 Reference value :  2.90010e-05
 Reference value :  2.90011e-05
 Reference value :  2.90012e-05
 Reference value :  2.90014e-05
 Reference value :  2.90018e-05
 Reference value :  2.90022e-05
 Reference value :  2.90028e-05
 Reference value :  2.90038e-05
 Reference value :  2.90060e-05
 Reference value :  2.90102e-05
 Reference value :  2.90187e-05
 Reference value :  2.90357e-05
 Reference value :  2.90698e-05
 Reference value :  2.91378e-05
 Reference value :  2.92557e-05
 Reference value :  2.94151e-05
 Reference value :  2.96732e-05
 Reference value :  3.00000e-05
 Reference value :  3.00001e-05
 Reference value :  3.00002e-05
 Reference value :  3.00004e-05
 Reference value :  3.00005e-05
 Reference value :  3.00005e-05
 Reference value :  3.00005e-05
 Reference value :  3.00006e-05
 Reference value :  3.00007e-05
 Reference value :  3.00008e-05
 Reference value :  3.00012e-05
 Reference value :  3.00018e-05
 Reference value :  3.00032e-05
 Reference value :  3.00059e-05
 Reference value :  3.00113e-05
 Reference value :  3.00222e-05
 Reference value :  3.00439e-05
 Reference value :  3.00801e-05
 Reference value :  3.01133e-05
 Reference value :  3.01796e-05
 Reference value :  3.03001e-05
 Reference value :  3.04240e-05
 Reference value :  3.05644e-05
 Reference value :  3.08006e-05
 Reference value :  3.10005e-05
 Reference value :  3.10005e-05
 Reference value :  3.10006e-05
 Reference value :  3.10008e-05
 Reference value :  3.10010e-05
 Reference value :  3.10010e-05
 Reference value :  3.10011e-05
 Reference value :  3.10012e-05
 Reference value :  3.10014e-05
 Reference value :  3.10018e-05
 Reference value :  3.10022e-05
 Reference value :  3.10028e-05
 Reference value :  3.10038e-05
 Reference value :  3.10060e-05
 Reference value :  3.10102e-05
 Reference value :  3.10187e-05
 Reference value :  3.10357e-05
 Reference value :  3.10698e-05
 Reference value :  3.11378e-05
 Reference value :  3.12560e-05
 Reference value :  3.14155e-05
 Reference value :  3.16741e-05
 Reference value :  3.20000e-05
 Reference value :  3.20000e-05
 Reference value :  3.20001e-05
 Reference value :  3.20003e-05
 Reference value :  3.20005e-05
 Reference value :  3.20005e-05
 Reference value :  3.20005e-05
 Reference value :  3.20006e-05
 Reference value :  3.20007e-05
 Reference value :  3.20008e-05
 Reference value :  3.20012e-05
 Reference value :  3.20018e-05
 Reference value :  3.20032e-05
 Reference value :  3.20059e-05
 Reference value :  3.20113e-05
 Reference value :  3.20222e-05
 Reference value :  3.20439e-05
 Reference value :  3.20804e-05
 Reference value :  3.21135e-05
 Reference value :  3.21796e-05
 Reference value :  3.23004e-05
 Reference value :  3.24243e-05
 Reference value :  3.25647e-05
 Reference value :  3.28011e-05
 Reference value :  3.30005e-05
 Reference value :  3.30006e-05
 Reference value :  3.30007e-05
 Reference value :  3.30009e-05
 Reference value :  3.30010e-05
 Reference value :  3.30010e-05
 Reference value :  3.30011e-05
 Reference value :  3.30012e-05
 Reference value :  3.30014e-05
 Reference value :  3.30018e-05
 Reference value :  3.30022e-05
 Reference value :  3.30028e-05
 Reference value :  3.30038e-05
 Reference value :  3.30060e-05
 Reference value :  3.30102e-05
 Reference value :  3.30187e-05
 Reference value :  3.30357e-05
 Reference value :  3.30698e-05
 Reference value :  3.31378e-05
 Reference value :  3.32561e-05
 Reference value :  3.34157e-05
 Reference value :  3.36746e-05
 Reference value :  3.40000e-05
No. of Data Rows : 920
ngspice-44 done
