
Note: Compatibility modes selected: hs a


Circuit: ** sch_path: /home/ece/cace/sar-adc-using-sky130-pdk/runs/run_2025-09-12_20-52-25/parameters/dnl/run_2/sar_output_dnl.sch

option SCALE: Scale is set to 1e-06 for instance and model parameters
option SCALE: Scale is set to 1e-06 for instance and model parameters
option SCALE: Scale is set to 1e-06 for instance and model parameters
option SCALE: Scale is set to 1e-06 for instance and model parameters
Doing analysis at TEMP = 27.000000 and TNOM = 27.000000

Using KLU as Direct Linear Solver
Operating point simulation skipped by 'uic',
  now using transient initial conditions.
 Reference value :  1.00000e-12
 Reference value :  1.08400e-12
 Reference value :  1.71076e-12
 Reference value :  6.45950e-12
 Reference value :  3.44097e-11
 Reference value :  1.05492e-10
 Reference value :  1.82385e-10
 Reference value :  4.46015e-10
 Reference value :  9.77946e-10
 Reference value :  2.50469e-09
 Reference value :  4.07693e-09
 Reference value :  5.07383e-09
 Reference value :  6.77084e-09
 Reference value :  8.33938e-09
 Reference value :  1.17294e-08
 Reference value :  1.26218e-08
 Reference value :  1.42799e-08
 Reference value :  1.87378e-08
 Reference value :  2.53053e-08
 Reference value :  3.25415e-08
 Reference value :  5.18698e-08
 Reference value :  1.22138e-07
 Reference value :  1.67419e-07
 Reference value :  1.85705e-07
 Reference value :  2.11222e-07
 Reference value :  2.50100e-07
 Reference value :  2.50170e-07
 Reference value :  2.50208e-07
 Reference value :  2.50254e-07
 Reference value :  2.50528e-07
 Reference value :  2.50948e-07
 Reference value :  2.51669e-07
 Reference value :  2.52634e-07
 Reference value :  2.53200e-07
 Reference value :  2.54206e-07
 Reference value :  2.56177e-07
 Reference value :  2.63845e-07
 Reference value :  3.80849e-07
 Reference value :  5.00030e-07
 Reference value :  5.00124e-07
 Reference value :  5.00516e-07
 Reference value :  5.01532e-07
 Reference value :  5.02818e-07
 Reference value :  5.04630e-07
 Reference value :  5.06443e-07
 Reference value :  5.08785e-07
 Reference value :  5.11229e-07
 Reference value :  5.13779e-07
 Reference value :  5.17377e-07
 Reference value :  5.81619e-07
 Reference value :  7.50130e-07
 Reference value :  7.50224e-07
 Reference value :  7.50688e-07
 Reference value :  7.51397e-07
 Reference value :  7.52990e-07
 Reference value :  7.53972e-07
 Reference value :  7.55028e-07
 Reference value :  7.56546e-07
 Reference value :  7.59545e-07
 Reference value :  7.63510e-07
 Reference value :  7.88245e-07
 Reference value :  9.86122e-07
 Reference value :  1.00001e-06
 Reference value :  1.00011e-06
 Reference value :  1.00034e-06
 Reference value :  1.00158e-06
 Reference value :  1.00290e-06
 Reference value :  1.00389e-06
 Reference value :  1.00484e-06
 Reference value :  1.00663e-06
 Reference value :  1.00933e-06
 Reference value :  1.01018e-06
 Reference value :  1.01192e-06
 Reference value :  1.01353e-06
 Reference value :  1.01624e-06
 Reference value :  1.01880e-06
 Reference value :  1.03740e-06
 Reference value :  1.14242e-06
 Reference value :  1.25011e-06
 Reference value :  1.25020e-06
 Reference value :  1.25032e-06
 Reference value :  1.25098e-06
 Reference value :  1.25186e-06
 Reference value :  1.25300e-06
 Reference value :  1.25397e-06
 Reference value :  1.25601e-06
 Reference value :  1.26173e-06
 Reference value :  1.26999e-06
 Reference value :  1.27484e-06
 Reference value :  1.28150e-06
 Reference value :  1.29415e-06
 Reference value :  1.35543e-06
 Reference value :  1.43223e-06
 Reference value :  1.50001e-06
 Reference value :  1.50010e-06
 Reference value :  1.50016e-06
 Reference value :  1.50052e-06
 Reference value :  1.50119e-06
 Reference value :  1.50201e-06
 Reference value :  1.50289e-06
 Reference value :  1.50398e-06
 Reference value :  1.50552e-06
 Reference value :  1.50615e-06
 Reference value :  1.50771e-06
 Reference value :  1.51087e-06
 Reference value :  1.52933e-06
 Reference value :  1.75010e-06
 Reference value :  1.75017e-06
 Reference value :  1.75026e-06
 Reference value :  1.75069e-06
 Reference value :  1.75140e-06
 Reference value :  1.75230e-06
 Reference value :  1.75345e-06
 Reference value :  1.75449e-06
 Reference value :  1.75580e-06
 Reference value :  1.76030e-06
 Reference value :  1.78259e-06
 Reference value :  2.00001e-06
 Reference value :  2.00010e-06
 Reference value :  2.00016e-06
 Reference value :  2.00034e-06
 Reference value :  2.00083e-06
 Reference value :  2.00158e-06
 Reference value :  2.00242e-06
 Reference value :  2.00341e-06
 Reference value :  2.00500e-06
 Reference value :  2.00845e-06
 Reference value :  2.01119e-06
 Reference value :  2.01323e-06
 Reference value :  2.01626e-06
 Reference value :  2.02400e-06
 Reference value :  2.03195e-06
 Reference value :  2.04097e-06
 Reference value :  2.05020e-06
 Reference value :  2.09756e-06
 Reference value :  2.25013e-06
 Reference value :  2.25026e-06
 Reference value :  2.25098e-06
 Reference value :  2.25230e-06
 Reference value :  2.25395e-06
 Reference value :  2.25732e-06
 Reference value :  2.28581e-06
 Reference value :  2.50001e-06
 Reference value :  2.50011e-06
 Reference value :  2.50022e-06
 Reference value :  2.50083e-06
 Reference value :  2.50154e-06
 Reference value :  2.50282e-06
 Reference value :  2.50388e-06
 Reference value :  2.50536e-06
 Reference value :  2.50598e-06
 Reference value :  2.50749e-06
 Reference value :  2.50924e-06
 Reference value :  2.51146e-06
 Reference value :  2.52245e-06
 Reference value :  2.58177e-06
 Reference value :  2.75011e-06
 Reference value :  2.75017e-06
 Reference value :  2.75021e-06
 Reference value :  2.75032e-06
 Reference value :  2.75069e-06
 Reference value :  2.75140e-06
 Reference value :  2.75229e-06
 Reference value :  2.75344e-06
 Reference value :  2.75448e-06
 Reference value :  2.75580e-06
 Reference value :  2.75837e-06
 Reference value :  2.76367e-06
 Reference value :  2.77502e-06
 Reference value :  3.00000e-06
 Reference value :  3.00007e-06
 Reference value :  3.00012e-06
 Reference value :  3.00034e-06
 Reference value :  3.00083e-06
 Reference value :  3.00158e-06
 Reference value :  3.00242e-06
 Reference value :  3.00290e-06
 Reference value :  3.00390e-06
 Reference value :  3.00484e-06
 Reference value :  3.00664e-06
 Reference value :  3.00841e-06
 Reference value :  3.01016e-06
 Reference value :  3.01192e-06
 Reference value :  3.01357e-06
 Reference value :  3.01535e-06
 Reference value :  3.01739e-06
 Reference value :  3.03071e-06
 Reference value :  3.12272e-06
 Reference value :  3.25010e-06
 Reference value :  3.25017e-06
 Reference value :  3.25026e-06
 Reference value :  3.25069e-06
 Reference value :  3.25140e-06
 Reference value :  3.25299e-06
 Reference value :  3.25397e-06
 Reference value :  3.25601e-06
 Reference value :  3.26544e-06
 Reference value :  3.31692e-06
 Reference value :  3.50001e-06
 Reference value :  3.50010e-06
 Reference value :  3.50022e-06
 Reference value :  3.50083e-06
 Reference value :  3.50154e-06
 Reference value :  3.50282e-06
 Reference value :  3.50389e-06
 Reference value :  3.50536e-06
 Reference value :  3.50598e-06
 Reference value :  3.50749e-06
 Reference value :  3.51029e-06
 Reference value :  3.52233e-06
 Reference value :  3.64579e-06
 Reference value :  3.75017e-06
 Reference value :  3.75026e-06
 Reference value :  3.75069e-06
 Reference value :  3.75140e-06
 Reference value :  3.75299e-06
 Reference value :  3.75397e-06
 Reference value :  3.75502e-06
 Reference value :  3.75579e-06
 Reference value :  3.75750e-06
 Reference value :  3.75963e-06
 Reference value :  3.76736e-06
 Reference value :  3.81951e-06
 Reference value :  4.00001e-06
 Reference value :  4.00010e-06
 Reference value :  4.00022e-06
 Reference value :  4.00083e-06
 Reference value :  4.00158e-06
 Reference value :  4.00242e-06
 Reference value :  4.00342e-06
 Reference value :  4.00440e-06
 Reference value :  4.00534e-06
 Reference value :  4.00758e-06
 Reference value :  4.00928e-06
 Reference value :  4.01016e-06
 Reference value :  4.01191e-06
 Reference value :  4.01356e-06
 Reference value :  4.01534e-06
 Reference value :  4.01734e-06
 Reference value :  4.03026e-06
 Reference value :  4.07074e-06
 Reference value :  4.10544e-06
 Reference value :  4.15265e-06
 Reference value :  4.25011e-06
 Reference value :  4.25020e-06
 Reference value :  4.25045e-06
 Reference value :  4.25140e-06
 Reference value :  4.25299e-06
 Reference value :  4.25396e-06
 Reference value :  4.25527e-06
 Reference value :  4.26176e-06
 Reference value :  4.28747e-06
 Reference value :  4.50001e-06
 Reference value :  4.50011e-06
 Reference value :  4.50022e-06
 Reference value :  4.50119e-06
 Reference value :  4.50235e-06
 Reference value :  4.50389e-06
 Reference value :  4.50598e-06
 Reference value :  4.50749e-06
 Reference value :  4.51028e-06
 Reference value :  4.53184e-06
 Reference value :  4.75011e-06
 Reference value :  4.75021e-06
 Reference value :  4.75045e-06
 Reference value :  4.75140e-06
 Reference value :  4.75229e-06
 Reference value :  4.75344e-06
 Reference value :  4.75448e-06
 Reference value :  4.75579e-06
 Reference value :  4.75750e-06
 Reference value :  4.75962e-06
 Reference value :  4.77474e-06
 Reference value :  4.99708e-06
 Reference value :  5.00007e-06
 Reference value :  5.00016e-06
 Reference value :  5.00052e-06
 Reference value :  5.00119e-06
 Reference value :  5.00158e-06
 Reference value :  5.00242e-06
 Reference value :  5.00342e-06
 Reference value :  5.00440e-06
 Reference value :  5.00484e-06
 Reference value :  5.00664e-06
 Reference value :  5.00841e-06
 Reference value :  5.01015e-06
 Reference value :  5.01190e-06
 Reference value :  5.01354e-06
 Reference value :  5.01532e-06
 Reference value :  5.01730e-06
 Reference value :  5.02985e-06
 Reference value :  5.05823e-06
 Reference value :  5.08840e-06
 Reference value :  5.16914e-06
 Reference value :  5.21480e-06
 Reference value :  5.25011e-06
 Reference value :  5.25017e-06
 Reference value :  5.25022e-06
 Reference value :  5.25032e-06
 Reference value :  5.25069e-06
 Reference value :  5.25140e-06
 Reference value :  5.25299e-06
 Reference value :  5.25396e-06
 Reference value :  5.25527e-06
 Reference value :  5.25748e-06
 Reference value :  5.26543e-06
 Reference value :  5.31680e-06
 Reference value :  5.50000e-06
 Reference value :  5.50007e-06
 Reference value :  5.50012e-06
 Reference value :  5.50022e-06
 Reference value :  5.50052e-06
 Reference value :  5.50119e-06
 Reference value :  5.50195e-06
 Reference value :  5.50282e-06
 Reference value :  5.50464e-06
 Reference value :  5.50598e-06
 Reference value :  5.50839e-06
 Reference value :  5.51143e-06
 Reference value :  5.53173e-06
 Reference value :  5.75011e-06
 Reference value :  5.75021e-06
 Reference value :  5.75045e-06
 Reference value :  5.75140e-06
 Reference value :  5.75299e-06
 Reference value :  5.75397e-06
 Reference value :  5.75502e-06
 Reference value :  5.75660e-06
 Reference value :  5.75962e-06
 Reference value :  5.76731e-06
 Reference value :  5.81904e-06
 Reference value :  6.00000e-06
 Reference value :  6.00007e-06
 Reference value :  6.00012e-06
 Reference value :  6.00034e-06
 Reference value :  6.00119e-06
 Reference value :  6.00158e-06
 Reference value :  6.00242e-06
 Reference value :  6.00342e-06
 Reference value :  6.00440e-06
 Reference value :  6.00534e-06
 Reference value :  6.00758e-06
 Reference value :  6.00933e-06
 Reference value :  6.01016e-06
 Reference value :  6.01188e-06
 Reference value :  6.01342e-06
 Reference value :  6.01684e-06
 Reference value :  6.02691e-06
 Reference value :  6.06135e-06
 Reference value :  6.09638e-06
 Reference value :  6.21046e-06
 Reference value :  6.25011e-06
 Reference value :  6.25017e-06
 Reference value :  6.25022e-06
 Reference value :  6.25045e-06
 Reference value :  6.25140e-06
 Reference value :  6.25299e-06
 Reference value :  6.25396e-06
 Reference value :  6.25601e-06
 Reference value :  6.26543e-06
 Reference value :  6.49292e-06
 Reference value :  6.50007e-06
 Reference value :  6.50016e-06
 Reference value :  6.50052e-06
 Reference value :  6.50119e-06
 Reference value :  6.50195e-06
 Reference value :  6.50282e-06
 Reference value :  6.50464e-06
 Reference value :  6.50598e-06
 Reference value :  6.50749e-06
 Reference value :  6.50924e-06
 Reference value :  6.51143e-06
 Reference value :  6.52217e-06
 Reference value :  6.57933e-06
 Reference value :  6.75011e-06
 Reference value :  6.75020e-06
 Reference value :  6.75026e-06
 Reference value :  6.75069e-06
 Reference value :  6.75139e-06
 Reference value :  6.75299e-06
 Reference value :  6.75397e-06
 Reference value :  6.75502e-06
 Reference value :  6.75660e-06
 Reference value :  6.75962e-06
 Reference value :  6.78954e-06
 Reference value :  7.00001e-06
 Reference value :  7.00012e-06
 Reference value :  7.00052e-06
 Reference value :  7.00158e-06
 Reference value :  7.00290e-06
 Reference value :  7.00440e-06
 Reference value :  7.00593e-06
 Reference value :  7.00850e-06
 Reference value :  7.01016e-06
 Reference value :  7.01188e-06
 Reference value :  7.01442e-06
 Reference value :  7.01744e-06
 Reference value :  7.02948e-06
 Reference value :  7.09741e-06
 Reference value :  7.16340e-06
 Reference value :  7.19055e-06
 Reference value :  7.25013e-06
 Reference value :  7.25021e-06
 Reference value :  7.25069e-06
 Reference value :  7.25140e-06
 Reference value :  7.25299e-06
 Reference value :  7.25398e-06
 Reference value :  7.25523e-06
 Reference value :  7.25888e-06
 Reference value :  7.27237e-06
 Reference value :  7.37271e-06
 Reference value :  7.50001e-06
 Reference value :  7.50010e-06
 Reference value :  7.50016e-06
 Reference value :  7.50034e-06
 Reference value :  7.50083e-06
 Reference value :  7.50158e-06
 Reference value :  7.50242e-06
 Reference value :  7.50342e-06
 Reference value :  7.50616e-06
 Reference value :  7.50955e-06
 Reference value :  7.54621e-06
 Reference value :  7.75013e-06
 Reference value :  7.75021e-06
 Reference value :  7.75032e-06
 Reference value :  7.75098e-06
 Reference value :  7.75139e-06
 Reference value :  7.75299e-06
 Reference value :  7.75344e-06
 Reference value :  7.75447e-06
 Reference value :  7.75578e-06
 Reference value :  7.76357e-06
 Reference value :  7.85662e-06
 Reference value :  8.00003e-06
 Reference value :  8.00011e-06
 Reference value :  8.00022e-06
 Reference value :  8.00083e-06
 Reference value :  8.00158e-06
 Reference value :  8.00242e-06
 Reference value :  8.00289e-06
 Reference value :  8.00399e-06
 Reference value :  8.00503e-06
 Reference value :  8.00639e-06
 Reference value :  8.00795e-06
 Reference value :  8.00982e-06
 Reference value :  8.02264e-06
 Reference value :  8.12062e-06
 Reference value :  8.25011e-06
 Reference value :  8.25021e-06
 Reference value :  8.25045e-06
 Reference value :  8.25139e-06
 Reference value :  8.25228e-06
 Reference value :  8.25298e-06
 Reference value :  8.25452e-06
 Reference value :  8.25535e-06
 Reference value :  8.25767e-06
 Reference value :  8.26625e-06
 Reference value :  8.32167e-06
 Reference value :  8.50000e-06
 Reference value :  8.50000e-06
 Reference value :  8.50000e-06
 Reference value :  8.50001e-06
 Reference value :  8.50008e-06
 Reference value :  8.50011e-06
 Reference value :  8.50018e-06
 Reference value :  8.50044e-06
 Reference value :  8.50115e-06
 Reference value :  8.50197e-06
 Reference value :  8.50292e-06
 Reference value :  8.50401e-06
 Reference value :  8.50446e-06
 Reference value :  8.50554e-06
 Reference value :  8.50743e-06
 Reference value :  8.51731e-06
 Reference value :  8.52238e-06
 Reference value :  8.52623e-06
 Reference value :  8.52912e-06
 Reference value :  8.53408e-06
 Reference value :  8.53772e-06
 Reference value :  8.54095e-06
 Reference value :  8.54586e-06
 Reference value :  8.55036e-06
 Reference value :  8.56388e-06
 Reference value :  8.59343e-06
 Reference value :  8.64836e-06
 Reference value :  8.66341e-06
 Reference value :  8.66966e-06
 Reference value :  8.69101e-06
 Reference value :  8.70876e-06
 Reference value :  8.75010e-06
 Reference value :  8.75017e-06
 Reference value :  8.75022e-06
 Reference value :  8.75045e-06
 Reference value :  8.75098e-06
 Reference value :  8.75139e-06
 Reference value :  8.75229e-06
 Reference value :  8.75342e-06
 Reference value :  8.75456e-06
 Reference value :  8.75733e-06
 Reference value :  8.76488e-06
 Reference value :  8.79857e-06
 Reference value :  8.81102e-06
 Reference value :  8.81996e-06
 Reference value :  8.82595e-06
 Reference value :  8.83832e-06
 Reference value :  8.86690e-06
 Reference value :  8.96057e-06
 Reference value :  9.00003e-06
 Reference value :  9.00012e-06
 Reference value :  9.00034e-06
 Reference value :  9.00119e-06
 Reference value :  9.00194e-06
 Reference value :  9.00280e-06
 Reference value :  9.00386e-06
 Reference value :  9.00532e-06
 Reference value :  9.00642e-06
 Reference value :  9.00877e-06
 Reference value :  9.01120e-06
 Reference value :  9.01240e-06
 Reference value :  9.01538e-06
 Reference value :  9.03334e-06
 Reference value :  9.25011e-06
 Reference value :  9.25020e-06
 Reference value :  9.25045e-06
 Reference value :  9.25139e-06
 Reference value :  9.25298e-06
 Reference value :  9.25395e-06
 Reference value :  9.25500e-06
 Reference value :  9.25655e-06
 Reference value :  9.25957e-06
 Reference value :  9.26658e-06
 Reference value :  9.34588e-06
 Reference value :  9.50003e-06
 Reference value :  9.50011e-06
 Reference value :  9.50022e-06
 Reference value :  9.50083e-06
 Reference value :  9.50157e-06
 Reference value :  9.50241e-06
 Reference value :  9.50289e-06
 Reference value :  9.50388e-06
 Reference value :  9.50482e-06
 Reference value :  9.50658e-06
 Reference value :  9.50748e-06
 Reference value :  9.50932e-06
 Reference value :  9.51025e-06
 Reference value :  9.51198e-06
 Reference value :  9.51357e-06
 Reference value :  9.51626e-06
 Reference value :  9.52065e-06
 Reference value :  9.55522e-06
 Reference value :  9.70880e-06
 Reference value :  9.75013e-06
 Reference value :  9.75021e-06
 Reference value :  9.75045e-06
 Reference value :  9.75140e-06
 Reference value :  9.75299e-06
 Reference value :  9.75396e-06
 Reference value :  9.75749e-06
 Reference value :  9.76538e-06
 Reference value :  9.76993e-06
 Reference value :  9.77505e-06
 Reference value :  9.78183e-06
 Reference value :  9.79438e-06
 Reference value :  9.82997e-06
 Reference value :  9.92746e-06
 Reference value :  1.00000e-05
 Reference value :  1.00001e-05
 Reference value :  1.00003e-05
 Reference value :  1.00012e-05
 Reference value :  1.00020e-05
 Reference value :  1.00034e-05
 Reference value :  1.00047e-05
 Reference value :  1.00062e-05
 Reference value :  1.00077e-05
 Reference value :  1.00095e-05
 Reference value :  1.00202e-05
 Reference value :  1.01436e-05
 Reference value :  1.02502e-05
 Reference value :  1.02503e-05
 Reference value :  1.02510e-05
 Reference value :  1.02519e-05
 Reference value :  1.02534e-05
 Reference value :  1.02545e-05
 Reference value :  1.02566e-05
 Reference value :  1.03073e-05
 Reference value :  1.05000e-05
 Reference value :  1.05001e-05
 Reference value :  1.05008e-05
 Reference value :  1.05016e-05
 Reference value :  1.05029e-05
 Reference value :  1.05050e-05
 Reference value :  1.05071e-05
 Reference value :  1.05112e-05
 Reference value :  1.05132e-05
 Reference value :  1.05163e-05
 Reference value :  1.05240e-05
 Reference value :  1.05332e-05
 Reference value :  1.05422e-05
 Reference value :  1.05510e-05
 Reference value :  1.05779e-05
 Reference value :  1.07056e-05
 Reference value :  1.07502e-05
 Reference value :  1.07503e-05
 Reference value :  1.07514e-05
 Reference value :  1.07530e-05
 Reference value :  1.07539e-05
 Reference value :  1.07573e-05
 Reference value :  1.07857e-05
 Reference value :  1.10000e-05
 Reference value :  1.10001e-05
 Reference value :  1.10002e-05
 Reference value :  1.10005e-05
 Reference value :  1.10012e-05
 Reference value :  1.10019e-05
 Reference value :  1.10028e-05
 Reference value :  1.10039e-05
 Reference value :  1.10054e-05
 Reference value :  1.10066e-05
 Reference value :  1.10084e-05
 Reference value :  1.10103e-05
 Reference value :  1.10221e-05
 Reference value :  1.11426e-05
 Reference value :  1.12501e-05
 Reference value :  1.12502e-05
 Reference value :  1.12503e-05
 Reference value :  1.12510e-05
 Reference value :  1.12519e-05
 Reference value :  1.12530e-05
 Reference value :  1.12540e-05
 Reference value :  1.12550e-05
 Reference value :  1.12566e-05
 Reference value :  1.12596e-05
 Reference value :  1.12674e-05
 Reference value :  1.14998e-05
 Reference value :  1.15000e-05
 Reference value :  1.15001e-05
 Reference value :  1.15002e-05
 Reference value :  1.15008e-05
 Reference value :  1.15016e-05
 Reference value :  1.15029e-05
 Reference value :  1.15039e-05
 Reference value :  1.15048e-05
 Reference value :  1.15066e-05
 Reference value :  1.15084e-05
 Reference value :  1.15102e-05
 Reference value :  1.15119e-05
 Reference value :  1.15136e-05
 Reference value :  1.15154e-05
 Reference value :  1.15175e-05
 Reference value :  1.15246e-05
 Reference value :  1.15559e-05
 Reference value :  1.16316e-05
 Reference value :  1.17501e-05
 Reference value :  1.17502e-05
 Reference value :  1.17502e-05
 Reference value :  1.17504e-05
 Reference value :  1.17514e-05
 Reference value :  1.17523e-05
 Reference value :  1.17534e-05
 Reference value :  1.17553e-05
 Reference value :  1.17590e-05
 Reference value :  1.17875e-05
 Reference value :  1.20000e-05
 Reference value :  1.20001e-05
 Reference value :  1.20005e-05
 Reference value :  1.20015e-05
 Reference value :  1.20028e-05
 Reference value :  1.20046e-05
 Reference value :  1.20060e-05
 Reference value :  1.20075e-05
 Reference value :  1.20103e-05
 Reference value :  1.20221e-05
 Reference value :  1.22501e-05
 Reference value :  1.22502e-05
 Reference value :  1.22507e-05
 Reference value :  1.22514e-05
 Reference value :  1.22530e-05
 Reference value :  1.22540e-05
 Reference value :  1.22558e-05
 Reference value :  1.22596e-05
 Reference value :  1.22896e-05
 Reference value :  1.25000e-05
 Reference value :  1.25002e-05
 Reference value :  1.25008e-05
 Reference value :  1.25020e-05
 Reference value :  1.25029e-05
 Reference value :  1.25044e-05
 Reference value :  1.25053e-05
 Reference value :  1.25076e-05
 Reference value :  1.25084e-05
 Reference value :  1.25102e-05
 Reference value :  1.25119e-05
 Reference value :  1.25136e-05
 Reference value :  1.25153e-05
 Reference value :  1.25174e-05
 Reference value :  1.25244e-05
 Reference value :  1.25706e-05
 Reference value :  1.25961e-05
 Reference value :  1.26276e-05
 Reference value :  1.27501e-05
 Reference value :  1.27502e-05
 Reference value :  1.27503e-05
 Reference value :  1.27507e-05
 Reference value :  1.27514e-05
 Reference value :  1.27530e-05
 Reference value :  1.27546e-05
 Reference value :  1.27590e-05
 Reference value :  1.27875e-05
 Reference value :  1.30000e-05
 Reference value :  1.30001e-05
 Reference value :  1.30005e-05
 Reference value :  1.30015e-05
 Reference value :  1.30028e-05
 Reference value :  1.30054e-05
 Reference value :  1.30075e-05
 Reference value :  1.30114e-05
 Reference value :  1.30790e-05
 Reference value :  1.32502e-05
 Reference value :  1.32503e-05
 Reference value :  1.32514e-05
 Reference value :  1.32534e-05
 Reference value :  1.32550e-05
 Reference value :  1.32575e-05
 Reference value :  1.32636e-05
 Reference value :  1.33783e-05
 Reference value :  1.35000e-05
 Reference value :  1.35001e-05
 Reference value :  1.35005e-05
 Reference value :  1.35016e-05
 Reference value :  1.35029e-05
 Reference value :  1.35039e-05
 Reference value :  1.35048e-05
 Reference value :  1.35066e-05
 Reference value :  1.35084e-05
 Reference value :  1.35102e-05
 Reference value :  1.35119e-05
 Reference value :  1.35135e-05
 Reference value :  1.35153e-05
 Reference value :  1.35173e-05
 Reference value :  1.35242e-05
 Reference value :  1.35493e-05
 Reference value :  1.35693e-05
 Reference value :  1.36098e-05
 Reference value :  1.36863e-05
 Reference value :  1.37501e-05
 Reference value :  1.37502e-05
 Reference value :  1.37502e-05
 Reference value :  1.37504e-05
 Reference value :  1.37514e-05
 Reference value :  1.37523e-05
 Reference value :  1.37534e-05
 Reference value :  1.37546e-05
 Reference value :  1.37575e-05
 Reference value :  1.37654e-05
 Reference value :  1.38755e-05
 Reference value :  1.40000e-05
 Reference value :  1.40001e-05
 Reference value :  1.40002e-05
 Reference value :  1.40003e-05
 Reference value :  1.40008e-05
 Reference value :  1.40015e-05
 Reference value :  1.40023e-05
 Reference value :  1.40028e-05
 Reference value :  1.40039e-05
 Reference value :  1.40054e-05
 Reference value :  1.40060e-05
 Reference value :  1.40075e-05
 Reference value :  1.40092e-05
 Reference value :  1.40114e-05
 Reference value :  1.40221e-05
 Reference value :  1.40790e-05
 Reference value :  1.42501e-05
 Reference value :  1.42502e-05
 Reference value :  1.42502e-05
 Reference value :  1.42504e-05
 Reference value :  1.42514e-05
 Reference value :  1.42523e-05
 Reference value :  1.42534e-05
 Reference value :  1.42545e-05
 Reference value :  1.42558e-05
 Reference value :  1.42575e-05
 Reference value :  1.42596e-05
 Reference value :  1.42747e-05
 Reference value :  1.44962e-05
 Reference value :  1.45000e-05
 Reference value :  1.45001e-05
 Reference value :  1.45002e-05
 Reference value :  1.45008e-05
 Reference value :  1.45016e-05
 Reference value :  1.45024e-05
 Reference value :  1.45029e-05
 Reference value :  1.45039e-05
 Reference value :  1.45048e-05
 Reference value :  1.45059e-05
 Reference value :  1.45076e-05
 Reference value :  1.45093e-05
 Reference value :  1.45102e-05
 Reference value :  1.45119e-05
 Reference value :  1.45134e-05
 Reference value :  1.45151e-05
 Reference value :  1.45169e-05
 Reference value :  1.45198e-05
 Reference value :  1.45333e-05
 Reference value :  1.45573e-05
 Reference value :  1.46111e-05
 Reference value :  1.46570e-05
 Reference value :  1.47501e-05
 Reference value :  1.47501e-05
 Reference value :  1.47502e-05
 Reference value :  1.47503e-05
 Reference value :  1.47504e-05
 Reference value :  1.47510e-05
 Reference value :  1.47514e-05
 Reference value :  1.47523e-05
 Reference value :  1.47530e-05
 Reference value :  1.47540e-05
 Reference value :  1.47553e-05
 Reference value :  1.47575e-05
 Reference value :  1.47654e-05
 Reference value :  1.48168e-05
 Reference value :  1.50000e-05
 Reference value :  1.50000e-05
 Reference value :  1.50001e-05
 Reference value :  1.50002e-05
 Reference value :  1.50003e-05
 Reference value :  1.50008e-05
 Reference value :  1.50015e-05
 Reference value :  1.50023e-05
 Reference value :  1.50028e-05
 Reference value :  1.50039e-05
 Reference value :  1.50054e-05
 Reference value :  1.50060e-05
 Reference value :  1.50075e-05
 Reference value :  1.50092e-05
 Reference value :  1.50114e-05
 Reference value :  1.50315e-05
 Reference value :  1.51421e-05
 Reference value :  1.52501e-05
 Reference value :  1.52502e-05
 Reference value :  1.52504e-05
 Reference value :  1.52514e-05
 Reference value :  1.52530e-05
 Reference value :  1.52540e-05
 Reference value :  1.52550e-05
 Reference value :  1.52566e-05
 Reference value :  1.52596e-05
 Reference value :  1.52895e-05
 Reference value :  1.55000e-05
 Reference value :  1.55001e-05
 Reference value :  1.55001e-05
 Reference value :  1.55003e-05
 Reference value :  1.55012e-05
 Reference value :  1.55020e-05
 Reference value :  1.55029e-05
 Reference value :  1.55039e-05
 Reference value :  1.55048e-05
 Reference value :  1.55059e-05
 Reference value :  1.55075e-05
 Reference value :  1.55093e-05
 Reference value :  1.55104e-05
 Reference value :  1.55113e-05
 Reference value :  1.55121e-05
 Reference value :  1.55137e-05
 Reference value :  1.55154e-05
 Reference value :  1.55176e-05
 Reference value :  1.55305e-05
 Reference value :  1.55522e-05
 Reference value :  1.55661e-05
 Reference value :  1.55839e-05
 Reference value :  1.56289e-05
 Reference value :  1.57491e-05
 Reference value :  1.57501e-05
 Reference value :  1.57502e-05
 Reference value :  1.57503e-05
 Reference value :  1.57507e-05
 Reference value :  1.57514e-05
 Reference value :  1.57523e-05
 Reference value :  1.57534e-05
 Reference value :  1.57546e-05
 Reference value :  1.57560e-05
 Reference value :  1.57616e-05
 Reference value :  1.58149e-05
 Reference value :  1.60000e-05
 Reference value :  1.60001e-05
 Reference value :  1.60001e-05
 Reference value :  1.60003e-05
 Reference value :  1.60008e-05
 Reference value :  1.60016e-05
 Reference value :  1.60029e-05
 Reference value :  1.60040e-05
 Reference value :  1.60055e-05
 Reference value :  1.60062e-05
 Reference value :  1.60077e-05
 Reference value :  1.60109e-05
 Reference value :  1.60473e-05
 Reference value :  1.62501e-05
 Reference value :  1.62502e-05
 Reference value :  1.62503e-05
 Reference value :  1.62510e-05
 Reference value :  1.62519e-05
 Reference value :  1.62530e-05
 Reference value :  1.62534e-05
 Reference value :  1.62545e-05
 Reference value :  1.62558e-05
 Reference value :  1.62636e-05
 Reference value :  1.64580e-05
 Reference value :  1.65001e-05
 Reference value :  1.65002e-05
 Reference value :  1.65005e-05
 Reference value :  1.65012e-05
 Reference value :  1.65016e-05
 Reference value :  1.65024e-05
 Reference value :  1.65029e-05
 Reference value :  1.65040e-05
 Reference value :  1.65050e-05
 Reference value :  1.65064e-05
 Reference value :  1.65088e-05
 Reference value :  1.65647e-05
 Reference value :  1.67501e-05
 Reference value :  1.67503e-05
 Reference value :  1.67510e-05
 Reference value :  1.67519e-05
 Reference value :  1.67536e-05
 Reference value :  1.67553e-05
 Reference value :  1.67577e-05
 Reference value :  1.67662e-05
 Reference value :  1.68821e-05
 Reference value :  1.70000e-05
 Reference value :  1.70000e-05
 Reference value :  1.70000e-05
 Reference value :  1.70000e-05
 Reference value :  1.70001e-05
 Reference value :  1.70003e-05
 Reference value :  1.70012e-05
 Reference value :  1.70024e-05
 Reference value :  1.70035e-05
 Reference value :  1.70045e-05
 Reference value :  1.70062e-05
 Reference value :  1.70173e-05
 Reference value :  1.70224e-05
 Reference value :  1.70262e-05
 Reference value :  1.70320e-05
 Reference value :  1.70377e-05
 Reference value :  1.70435e-05
 Reference value :  1.70485e-05
 Reference value :  1.70540e-05
 Reference value :  1.70689e-05
 Reference value :  1.70906e-05
 Reference value :  1.71459e-05
 Reference value :  1.71599e-05
 Reference value :  1.71661e-05
 Reference value :  1.71787e-05
 Reference value :  1.72070e-05
 Reference value :  1.72501e-05
 Reference value :  1.72502e-05
 Reference value :  1.72502e-05
 Reference value :  1.72504e-05
 Reference value :  1.72510e-05
 Reference value :  1.72519e-05
 Reference value :  1.72530e-05
 Reference value :  1.72540e-05
 Reference value :  1.72552e-05
 Reference value :  1.72587e-05
 Reference value :  1.72717e-05
 Reference value :  1.72988e-05
 Reference value :  1.73204e-05
 Reference value :  1.73260e-05
 Reference value :  1.73453e-05
 Reference value :  1.74101e-05
 Reference value :  1.75000e-05
 Reference value :  1.75001e-05
 Reference value :  1.75002e-05
 Reference value :  1.75003e-05
 Reference value :  1.75008e-05
 Reference value :  1.75015e-05
 Reference value :  1.75023e-05
 Reference value :  1.75028e-05
 Reference value :  1.75039e-05
 Reference value :  1.75064e-05
 Reference value :  1.75088e-05
 Reference value :  1.75112e-05
 Reference value :  1.75124e-05
 Reference value :  1.75154e-05
 Reference value :  1.75203e-05
 Reference value :  1.75333e-05
 Reference value :  1.76381e-05
 Reference value :  1.77501e-05
 Reference value :  1.77501e-05
 Reference value :  1.77502e-05
 Reference value :  1.77502e-05
 Reference value :  1.77504e-05
 Reference value :  1.77510e-05
 Reference value :  1.77514e-05
 Reference value :  1.77523e-05
 Reference value :  1.77534e-05
 Reference value :  1.77545e-05
 Reference value :  1.77558e-05
 Reference value :  1.77573e-05
 Reference value :  1.77609e-05
 Reference value :  1.77831e-05
 Reference value :  1.80012e-05
 Reference value :  1.80049e-05
 Reference value :  1.80072e-05
 Reference value :  1.80092e-05
 Reference value :  1.80110e-05
 Reference value :  1.80126e-05
 Reference value :  1.80141e-05
 Reference value :  1.80170e-05
 Reference value :  1.80265e-05
 Reference value :  1.81005e-05
 Reference value :  1.82501e-05
 Reference value :  1.82502e-05
 Reference value :  1.82503e-05
 Reference value :  1.82507e-05
 Reference value :  1.82514e-05
 Reference value :  1.82529e-05
 Reference value :  1.82544e-05
 Reference value :  1.82603e-05
 Reference value :  1.82671e-05
 Reference value :  1.82717e-05
 Reference value :  1.82810e-05
 Reference value :  1.83309e-05
 Reference value :  1.84245e-05
 Reference value :  1.85000e-05
 Reference value :  1.85001e-05
 Reference value :  1.85003e-05
 Reference value :  1.85012e-05
 Reference value :  1.85020e-05
 Reference value :  1.85029e-05
 Reference value :  1.85047e-05
 Reference value :  1.85062e-05
 Reference value :  1.85077e-05
 Reference value :  1.85109e-05
 Reference value :  1.85291e-05
 Reference value :  1.87501e-05
 Reference value :  1.87502e-05
 Reference value :  1.87504e-05
 Reference value :  1.87514e-05
 Reference value :  1.87530e-05
 Reference value :  1.87534e-05
 Reference value :  1.87545e-05
 Reference value :  1.87558e-05
 Reference value :  1.87603e-05
 Reference value :  1.88079e-05
 Reference value :  1.90000e-05
 Reference value :  1.90001e-05
 Reference value :  1.90001e-05
 Reference value :  1.90003e-05
 Reference value :  1.90008e-05
 Reference value :  1.90016e-05
 Reference value :  1.90024e-05
 Reference value :  1.90029e-05
 Reference value :  1.90040e-05
 Reference value :  1.90050e-05
 Reference value :  1.90071e-05
 Reference value :  1.90112e-05
 Reference value :  1.90132e-05
 Reference value :  1.90152e-05
 Reference value :  1.90174e-05
 Reference value :  1.90240e-05
 Reference value :  1.90307e-05
 Reference value :  1.90367e-05
 Reference value :  1.90427e-05
 Reference value :  1.90488e-05
 Reference value :  1.90659e-05
 Reference value :  1.91011e-05
 Reference value :  1.92244e-05
 Reference value :  1.92501e-05
 Reference value :  1.92502e-05
 Reference value :  1.92503e-05
 Reference value :  1.92510e-05
 Reference value :  1.92519e-05
 Reference value :  1.92530e-05
 Reference value :  1.92539e-05
 Reference value :  1.92559e-05
 Reference value :  1.92719e-05
 Reference value :  1.95003e-05
 Reference value :  1.95014e-05
 Reference value :  1.95027e-05
 Reference value :  1.95046e-05
 Reference value :  1.95060e-05
 Reference value :  1.95084e-05
 Reference value :  1.95135e-05
 Reference value :  1.95914e-05
 Reference value :  1.97502e-05
 Reference value :  1.97503e-05
 Reference value :  1.97507e-05
 Reference value :  1.97514e-05
 Reference value :  1.97534e-05
 Reference value :  1.97545e-05
 Reference value :  1.97558e-05
 Reference value :  1.97583e-05
 Reference value :  1.97636e-05
 Reference value :  1.98193e-05
 Reference value :  2.00000e-05
 Reference value :  2.00001e-05
 Reference value :  2.00002e-05
 Reference value :  2.00005e-05
 Reference value :  2.00016e-05
 Reference value :  2.00024e-05
 Reference value :  2.00034e-05
 Reference value :  2.00044e-05
 Reference value :  2.00053e-05
 Reference value :  2.00076e-05
 Reference value :  2.00102e-05
 Reference value :  2.00119e-05
 Reference value :  2.00136e-05
 Reference value :  2.00164e-05
 Reference value :  2.00210e-05
 Reference value :  2.00559e-05
 Reference value :  2.01806e-05
 Reference value :  2.02501e-05
 Reference value :  2.02502e-05
 Reference value :  2.02503e-05
 Reference value :  2.02510e-05
 Reference value :  2.02514e-05
 Reference value :  2.02523e-05
 Reference value :  2.02534e-05
 Reference value :  2.02553e-05
 Reference value :  2.02590e-05
 Reference value :  2.02728e-05
 Reference value :  2.05000e-05
 Reference value :  2.05001e-05
 Reference value :  2.05005e-05
 Reference value :  2.05011e-05
 Reference value :  2.05018e-05
 Reference value :  2.05027e-05
 Reference value :  2.05053e-05
 Reference value :  2.05067e-05
 Reference value :  2.05105e-05
 Reference value :  2.05371e-05
 Reference value :  2.07501e-05
 Reference value :  2.07502e-05
 Reference value :  2.07504e-05
 Reference value :  2.07514e-05
 Reference value :  2.07530e-05
 Reference value :  2.07540e-05
 Reference value :  2.07550e-05
 Reference value :  2.07558e-05
 Reference value :  2.07575e-05
 Reference value :  2.07596e-05
 Reference value :  2.07749e-05
 Reference value :  2.09995e-05
 Reference value :  2.10001e-05
 Reference value :  2.10002e-05
 Reference value :  2.10005e-05
 Reference value :  2.10012e-05
 Reference value :  2.10020e-05
 Reference value :  2.10029e-05
 Reference value :  2.10039e-05
 Reference value :  2.10048e-05
 Reference value :  2.10066e-05
 Reference value :  2.10084e-05
 Reference value :  2.10102e-05
 Reference value :  2.10119e-05
 Reference value :  2.10145e-05
 Reference value :  2.10164e-05
 Reference value :  2.10244e-05
 Reference value :  2.10405e-05
 Reference value :  2.10680e-05
 Reference value :  2.10958e-05
 Reference value :  2.11705e-05
 Reference value :  2.12502e-05
 Reference value :  2.12504e-05
 Reference value :  2.12514e-05
 Reference value :  2.12534e-05
 Reference value :  2.12560e-05
 Reference value :  2.12875e-05
 Reference value :  2.15000e-05
 Reference value :  2.15002e-05
 Reference value :  2.15008e-05
 Reference value :  2.15019e-05
 Reference value :  2.15033e-05
 Reference value :  2.15060e-05
 Reference value :  2.15084e-05
 Reference value :  2.15167e-05
 Reference value :  2.17501e-05
 Reference value :  2.17502e-05
 Reference value :  2.17503e-05
 Reference value :  2.17510e-05
 Reference value :  2.17519e-05
 Reference value :  2.17530e-05
 Reference value :  2.17540e-05
 Reference value :  2.17550e-05
 Reference value :  2.17566e-05
 Reference value :  2.17596e-05
 Reference value :  2.17895e-05
 Reference value :  2.20000e-05
 Reference value :  2.20001e-05
 Reference value :  2.20001e-05
 Reference value :  2.20005e-05
 Reference value :  2.20016e-05
 Reference value :  2.20029e-05
 Reference value :  2.20039e-05
 Reference value :  2.20048e-05
 Reference value :  2.20066e-05
 Reference value :  2.20084e-05
 Reference value :  2.20102e-05
 Reference value :  2.20120e-05
 Reference value :  2.20136e-05
 Reference value :  2.20153e-05
 Reference value :  2.20191e-05
 Reference value :  2.20387e-05
 Reference value :  2.20564e-05
 Reference value :  2.20809e-05
 Reference value :  2.21120e-05
 Reference value :  2.21925e-05
 Reference value :  2.22472e-05
 Reference value :  2.22501e-05
 Reference value :  2.22502e-05
 Reference value :  2.22502e-05
 Reference value :  2.22504e-05
 Reference value :  2.22510e-05
 Reference value :  2.22514e-05
 Reference value :  2.22523e-05
 Reference value :  2.22534e-05
 Reference value :  2.22553e-05
 Reference value :  2.22590e-05
 Reference value :  2.22875e-05
 Reference value :  2.24935e-05
 Reference value :  2.25000e-05
 Reference value :  2.25001e-05
 Reference value :  2.25002e-05
 Reference value :  2.25005e-05
 Reference value :  2.25012e-05
 Reference value :  2.25015e-05
 Reference value :  2.25028e-05
 Reference value :  2.25046e-05
 Reference value :  2.25060e-05
 Reference value :  2.25075e-05
 Reference value :  2.25103e-05
 Reference value :  2.25221e-05
 Reference value :  2.27501e-05
 Reference value :  2.27502e-05
 Reference value :  2.27502e-05
 Reference value :  2.27504e-05
 Reference value :  2.27514e-05
 Reference value :  2.27530e-05
 Reference value :  2.27540e-05
 Reference value :  2.27550e-05
 Reference value :  2.27566e-05
 Reference value :  2.27584e-05
 Reference value :  2.27610e-05
 Reference value :  2.27748e-05
 Reference value :  2.28793e-05
 Reference value :  2.30000e-05
 Reference value :  2.30000e-05
 Reference value :  2.30002e-05
 Reference value :  2.30008e-05
 Reference value :  2.30016e-05
 Reference value :  2.30024e-05
 Reference value :  2.30034e-05
 Reference value :  2.30044e-05
 Reference value :  2.30053e-05
 Reference value :  2.30075e-05
 Reference value :  2.30102e-05
 Reference value :  2.30119e-05
 Reference value :  2.30134e-05
 Reference value :  2.30160e-05
 Reference value :  2.30198e-05
 Reference value :  2.30333e-05
 Reference value :  2.30734e-05
 Reference value :  2.31573e-05
 Reference value :  2.32406e-05
 Reference value :  2.32502e-05
 Reference value :  2.32503e-05
 Reference value :  2.32507e-05
 Reference value :  2.32514e-05
 Reference value :  2.32523e-05
 Reference value :  2.32534e-05
 Reference value :  2.32553e-05
 Reference value :  2.32590e-05
 Reference value :  2.32728e-05
 Reference value :  2.33757e-05
 Reference value :  2.35000e-05
 Reference value :  2.35001e-05
 Reference value :  2.35002e-05
 Reference value :  2.35003e-05
 Reference value :  2.35008e-05
 Reference value :  2.35015e-05
 Reference value :  2.35023e-05
 Reference value :  2.35028e-05
 Reference value :  2.35039e-05
 Reference value :  2.35054e-05
 Reference value :  2.35060e-05
 Reference value :  2.35075e-05
 Reference value :  2.35092e-05
 Reference value :  2.35136e-05
 Reference value :  2.35473e-05
 Reference value :  2.37501e-05
 Reference value :  2.37502e-05
 Reference value :  2.37502e-05
 Reference value :  2.37503e-05
 Reference value :  2.37507e-05
 Reference value :  2.37514e-05
 Reference value :  2.37530e-05
 Reference value :  2.37540e-05
 Reference value :  2.37545e-05
 Reference value :  2.37558e-05
 Reference value :  2.37584e-05
 Reference value :  2.37610e-05
 Reference value :  2.37748e-05
 Reference value :  2.38792e-05
 Reference value :  2.40000e-05
 Reference value :  2.40001e-05
 Reference value :  2.40001e-05
 Reference value :  2.40002e-05
 Reference value :  2.40005e-05
 Reference value :  2.40012e-05
 Reference value :  2.40016e-05
 Reference value :  2.40024e-05
 Reference value :  2.40029e-05
 Reference value :  2.40039e-05
 Reference value :  2.40048e-05
 Reference value :  2.40066e-05
 Reference value :  2.40085e-05
 Reference value :  2.40102e-05
 Reference value :  2.40119e-05
 Reference value :  2.40144e-05
 Reference value :  2.40173e-05
 Reference value :  2.40238e-05
 Reference value :  2.40337e-05
 Reference value :  2.40435e-05
 Reference value :  2.40537e-05
 Reference value :  2.40735e-05
 Reference value :  2.41449e-05
 Reference value :  2.42501e-05
 Reference value :  2.42502e-05
 Reference value :  2.42502e-05
 Reference value :  2.42504e-05
 Reference value :  2.42510e-05
 Reference value :  2.42519e-05
 Reference value :  2.42530e-05
 Reference value :  2.42540e-05
 Reference value :  2.42552e-05
 Reference value :  2.42589e-05
 Reference value :  2.42723e-05
 Reference value :  2.43723e-05
 Reference value :  2.45000e-05
 Reference value :  2.45001e-05
 Reference value :  2.45001e-05
 Reference value :  2.45002e-05
 Reference value :  2.45005e-05
 Reference value :  2.45012e-05
 Reference value :  2.45016e-05
 Reference value :  2.45024e-05
 Reference value :  2.45029e-05
 Reference value :  2.45040e-05
 Reference value :  2.45055e-05
 Reference value :  2.45062e-05
 Reference value :  2.45077e-05
 Reference value :  2.45096e-05
 Reference value :  2.45125e-05
 Reference value :  2.45295e-05
 Reference value :  2.46523e-05
 Reference value :  2.47501e-05
 Reference value :  2.47502e-05
 Reference value :  2.47503e-05
 Reference value :  2.47504e-05
 Reference value :  2.47510e-05
 Reference value :  2.47514e-05
 Reference value :  2.47523e-05
 Reference value :  2.47534e-05
 Reference value :  2.47545e-05
 Reference value :  2.47558e-05
 Reference value :  2.47602e-05
 Reference value :  2.48068e-05
 Reference value :  2.50000e-05
 Reference value :  2.50001e-05
 Reference value :  2.50001e-05
 Reference value :  2.50003e-05
 Reference value :  2.50008e-05
 Reference value :  2.50016e-05
 Reference value :  2.50024e-05
 Reference value :  2.50029e-05
 Reference value :  2.50040e-05
 Reference value :  2.50050e-05
 Reference value :  2.50064e-05
 Reference value :  2.50079e-05
 Reference value :  2.50088e-05
 Reference value :  2.50118e-05
 Reference value :  2.50226e-05
 Reference value :  2.50647e-05
 Reference value :  2.52501e-05
 Reference value :  2.52502e-05
 Reference value :  2.52503e-05
 Reference value :  2.52507e-05
 Reference value :  2.52514e-05
 Reference value :  2.52530e-05
 Reference value :  2.52545e-05
 Reference value :  2.52562e-05
 Reference value :  2.52619e-05
 Reference value :  2.53821e-05
 Reference value :  2.55000e-05
 Reference value :  2.55000e-05
 Reference value :  2.55000e-05
 Reference value :  2.55000e-05
 Reference value :  2.55001e-05
 Reference value :  2.55002e-05
 Reference value :  2.55007e-05
 Reference value :  2.55020e-05
 Reference value :  2.55029e-05
 Reference value :  2.55045e-05
 Reference value :  2.55062e-05
 Reference value :  2.55224e-05
 Reference value :  2.55262e-05
 Reference value :  2.55291e-05
 Reference value :  2.55341e-05
 Reference value :  2.55377e-05
 Reference value :  2.55435e-05
 Reference value :  2.55558e-05
 Reference value :  2.55652e-05
 Reference value :  2.55754e-05
 Reference value :  2.55948e-05
 Reference value :  2.56145e-05
 Reference value :  2.56385e-05
 Reference value :  2.56493e-05
 Reference value :  2.56553e-05
 Reference value :  2.56668e-05
 Reference value :  2.56854e-05
 Reference value :  2.57053e-05
 Reference value :  2.57375e-05
 Reference value :  2.57501e-05
 Reference value :  2.57502e-05
 Reference value :  2.57502e-05
 Reference value :  2.57504e-05
 Reference value :  2.57514e-05
 Reference value :  2.57523e-05
 Reference value :  2.57534e-05
 Reference value :  2.57546e-05
 Reference value :  2.57573e-05
 Reference value :  2.57649e-05
 Reference value :  2.57989e-05
 Reference value :  2.58114e-05
 Reference value :  2.58206e-05
 Reference value :  2.58259e-05
 Reference value :  2.58384e-05
 Reference value :  2.58656e-05
 Reference value :  2.59085e-05
 Reference value :  2.60000e-05
 Reference value :  2.60000e-05
 Reference value :  2.60001e-05
 Reference value :  2.60002e-05
 Reference value :  2.60003e-05
 Reference value :  2.60008e-05
 Reference value :  2.60015e-05
 Reference value :  2.60023e-05
 Reference value :  2.60028e-05
 Reference value :  2.60039e-05
 Reference value :  2.60053e-05
 Reference value :  2.60064e-05
 Reference value :  2.60088e-05
 Reference value :  2.60112e-05
 Reference value :  2.60124e-05
 Reference value :  2.60154e-05
 Reference value :  2.60255e-05
 Reference value :  2.61383e-05
 Reference value :  2.62501e-05
 Reference value :  2.62502e-05
 Reference value :  2.62503e-05
 Reference value :  2.62510e-05
 Reference value :  2.62519e-05
 Reference value :  2.62530e-05
 Reference value :  2.62539e-05
 Reference value :  2.62550e-05
 Reference value :  2.62565e-05
 Reference value :  2.62596e-05
 Reference value :  2.62728e-05
 Reference value :  2.64255e-05
 Reference value :  2.65013e-05
 Reference value :  2.65050e-05
 Reference value :  2.65076e-05
 Reference value :  2.65112e-05
 Reference value :  2.65131e-05
 Reference value :  2.65149e-05
 Reference value :  2.65169e-05
 Reference value :  2.65219e-05
 Reference value :  2.65998e-05
 Reference value :  2.67501e-05
 Reference value :  2.67502e-05
 Reference value :  2.67503e-05
 Reference value :  2.67510e-05
 Reference value :  2.67518e-05
 Reference value :  2.67534e-05
 Reference value :  2.67544e-05
 Reference value :  2.67569e-05
 Reference value :  2.67635e-05
 Reference value :  2.67689e-05
 Reference value :  2.67771e-05
 Reference value :  2.68232e-05
 Reference value :  2.69046e-05
 Reference value :  2.70000e-05
 Reference value :  2.70001e-05
 Reference value :  2.70005e-05
 Reference value :  2.70016e-05
 Reference value :  2.70029e-05
 Reference value :  2.70047e-05
 Reference value :  2.70062e-05
 Reference value :  2.70077e-05
 Reference value :  2.70109e-05
 Reference value :  2.70290e-05
 Reference value :  2.72501e-05
 Reference value :  2.72502e-05
 Reference value :  2.72503e-05
 Reference value :  2.72507e-05
 Reference value :  2.72514e-05
 Reference value :  2.72530e-05
 Reference value :  2.72540e-05
 Reference value :  2.72550e-05
 Reference value :  2.72582e-05
 Reference value :  2.72819e-05
 Reference value :  2.75000e-05
 Reference value :  2.75001e-05
 Reference value :  2.75002e-05
 Reference value :  2.75005e-05
 Reference value :  2.75016e-05
 Reference value :  2.75029e-05
 Reference value :  2.75045e-05
 Reference value :  2.75063e-05
 Reference value :  2.75100e-05
 Reference value :  2.75122e-05
 Reference value :  2.75143e-05
 Reference value :  2.75163e-05
 Reference value :  2.75208e-05
 Reference value :  2.75315e-05
 Reference value :  2.75376e-05
 Reference value :  2.75433e-05
 Reference value :  2.75490e-05
 Reference value :  2.75648e-05
 Reference value :  2.75857e-05
 Reference value :  2.76510e-05
 Reference value :  2.77501e-05
 Reference value :  2.77502e-05
 Reference value :  2.77503e-05
 Reference value :  2.77510e-05
 Reference value :  2.77519e-05
 Reference value :  2.77530e-05
 Reference value :  2.77539e-05
 Reference value :  2.77559e-05
 Reference value :  2.77649e-05
 Reference value :  2.79792e-05
 Reference value :  2.80004e-05
 Reference value :  2.80015e-05
 Reference value :  2.80028e-05
 Reference value :  2.80039e-05
 Reference value :  2.80055e-05
 Reference value :  2.80069e-05
 Reference value :  2.80086e-05
 Reference value :  2.80125e-05
 Reference value :  2.80490e-05
 Reference value :  2.82501e-05
 Reference value :  2.82502e-05
 Reference value :  2.82503e-05
 Reference value :  2.82510e-05
 Reference value :  2.82523e-05
 Reference value :  2.82534e-05
 Reference value :  2.82545e-05
 Reference value :  2.82558e-05
 Reference value :  2.82583e-05
 Reference value :  2.82610e-05
 Reference value :  2.82748e-05
 Reference value :  2.83788e-05
 Reference value :  2.85000e-05
 Reference value :  2.85000e-05
 Reference value :  2.85001e-05
 Reference value :  2.85002e-05
 Reference value :  2.85003e-05
 Reference value :  2.85008e-05
 Reference value :  2.85016e-05
 Reference value :  2.85024e-05
 Reference value :  2.85034e-05
 Reference value :  2.85044e-05
 Reference value :  2.85048e-05
 Reference value :  2.85059e-05
 Reference value :  2.85076e-05
 Reference value :  2.85093e-05
 Reference value :  2.85102e-05
 Reference value :  2.85119e-05
 Reference value :  2.85136e-05
 Reference value :  2.85164e-05
 Reference value :  2.85210e-05
 Reference value :  2.85559e-05
 Reference value :  2.86806e-05
 Reference value :  2.87501e-05
 Reference value :  2.87502e-05
 Reference value :  2.87503e-05
 Reference value :  2.87507e-05
 Reference value :  2.87514e-05
 Reference value :  2.87530e-05
 Reference value :  2.87540e-05
 Reference value :  2.87560e-05
 Reference value :  2.87618e-05
 Reference value :  2.88169e-05
 Reference value :  2.90000e-05
 Reference value :  2.90001e-05
 Reference value :  2.90005e-05
 Reference value :  2.90011e-05
 Reference value :  2.90018e-05
 Reference value :  2.90027e-05
 Reference value :  2.90038e-05
 Reference value :  2.90053e-05
 Reference value :  2.90060e-05
 Reference value :  2.90076e-05
 Reference value :  2.90105e-05
 Reference value :  2.90242e-05
 Reference value :  2.92173e-05
 Reference value :  2.92502e-05
 Reference value :  2.92503e-05
 Reference value :  2.92507e-05
 Reference value :  2.92514e-05
 Reference value :  2.92530e-05
 Reference value :  2.92540e-05
 Reference value :  2.92550e-05
 Reference value :  2.92566e-05
 Reference value :  2.92596e-05
 Reference value :  2.92749e-05
 Reference value :  2.94995e-05
 Reference value :  2.95001e-05
 Reference value :  2.95002e-05
 Reference value :  2.95005e-05
 Reference value :  2.95016e-05
 Reference value :  2.95029e-05
 Reference value :  2.95039e-05
 Reference value :  2.95048e-05
 Reference value :  2.95066e-05
 Reference value :  2.95084e-05
 Reference value :  2.95102e-05
 Reference value :  2.95119e-05
 Reference value :  2.95136e-05
 Reference value :  2.95164e-05
 Reference value :  2.95209e-05
 Reference value :  2.95405e-05
 Reference value :  2.95852e-05
 Reference value :  2.96064e-05
 Reference value :  2.96376e-05
 Reference value :  2.97501e-05
 Reference value :  2.97502e-05
 Reference value :  2.97504e-05
 Reference value :  2.97514e-05
 Reference value :  2.97530e-05
 Reference value :  2.97546e-05
 Reference value :  2.97590e-05
 Reference value :  2.97875e-05
 Reference value :  3.00000e-05
 Reference value :  3.00001e-05
 Reference value :  3.00003e-05
 Reference value :  3.00008e-05
 Reference value :  3.00015e-05
 Reference value :  3.00028e-05
 Reference value :  3.00039e-05
 Reference value :  3.00060e-05
 Reference value :  3.00075e-05
 Reference value :  3.00103e-05
 Reference value :  3.00221e-05
 Reference value :  3.01423e-05
 Reference value :  3.02502e-05
 Reference value :  3.02503e-05
 Reference value :  3.02507e-05
 Reference value :  3.02514e-05
 Reference value :  3.02530e-05
 Reference value :  3.02534e-05
 Reference value :  3.02545e-05
 Reference value :  3.02558e-05
 Reference value :  3.02583e-05
 Reference value :  3.02747e-05
 Reference value :  3.05000e-05
 Reference value :  3.05001e-05
 Reference value :  3.05001e-05
 Reference value :  3.05005e-05
 Reference value :  3.05016e-05
 Reference value :  3.05024e-05
 Reference value :  3.05034e-05
 Reference value :  3.05039e-05
 Reference value :  3.05048e-05
 Reference value :  3.05066e-05
 Reference value :  3.05084e-05
 Reference value :  3.05102e-05
 Reference value :  3.05120e-05
 Reference value :  3.05136e-05
 Reference value :  3.05163e-05
 Reference value :  3.05207e-05
 Reference value :  3.05474e-05
 Reference value :  3.05847e-05
 Reference value :  3.06230e-05
 Reference value :  3.07501e-05
 Reference value :  3.07502e-05
 Reference value :  3.07503e-05
 Reference value :  3.07510e-05
 Reference value :  3.07523e-05
 Reference value :  3.07534e-05
 Reference value :  3.07553e-05
 Reference value :  3.07654e-05
 Reference value :  3.08758e-05
 Reference value :  3.10001e-05
 Reference value :  3.10002e-05
 Reference value :  3.10008e-05
 Reference value :  3.10019e-05
 Reference value :  3.10033e-05
 Reference value :  3.10060e-05
 Reference value :  3.10084e-05
 Reference value :  3.10114e-05
 Reference value :  3.10473e-05
 Reference value :  3.12501e-05
 Reference value :  3.12502e-05
 Reference value :  3.12507e-05
 Reference value :  3.12514e-05
 Reference value :  3.12530e-05
 Reference value :  3.12540e-05
 Reference value :  3.12550e-05
 Reference value :  3.12566e-05
 Reference value :  3.12596e-05
 Reference value :  3.12748e-05
 Reference value :  3.14989e-05
 Reference value :  3.15001e-05
 Reference value :  3.15002e-05
 Reference value :  3.15005e-05
 Reference value :  3.15012e-05
 Reference value :  3.15020e-05
 Reference value :  3.15029e-05
 Reference value :  3.15039e-05
 Reference value :  3.15048e-05
 Reference value :  3.15066e-05
 Reference value :  3.15093e-05
 Reference value :  3.15111e-05
 Reference value :  3.15119e-05
 Reference value :  3.15134e-05
 Reference value :  3.15151e-05
 Reference value :  3.15169e-05
 Reference value :  3.15183e-05
 Reference value :  3.15223e-05
 Reference value :  3.15330e-05
 Reference value :  3.15465e-05
 Reference value :  3.15554e-05
 Reference value :  3.15780e-05
 Reference value :  3.16061e-05
 Reference value :  3.16942e-05
 Reference value :  3.17501e-05
 Reference value :  3.17503e-05
 Reference value :  3.17510e-05
 Reference value :  3.17519e-05
 Reference value :  3.17534e-05
 Reference value :  3.17553e-05
 Reference value :  3.17616e-05
 Reference value :  3.17848e-05
 Reference value :  3.18071e-05
 Reference value :  3.19304e-05
 Reference value :  3.20000e-05
 Reference value :  3.20001e-05
 Reference value :  3.20002e-05
 Reference value :  3.20008e-05
 Reference value :  3.20015e-05
 Reference value :  3.20024e-05
 Reference value :  3.20028e-05
 Reference value :  3.20039e-05
 Reference value :  3.20054e-05
 Reference value :  3.20060e-05
 Reference value :  3.20075e-05
 Reference value :  3.20103e-05
 Reference value :  3.20314e-05
 Reference value :  3.22501e-05
 Reference value :  3.22502e-05
 Reference value :  3.22503e-05
 Reference value :  3.22510e-05
 Reference value :  3.22519e-05
 Reference value :  3.22534e-05
 Reference value :  3.22545e-05
 Reference value :  3.22558e-05
 Reference value :  3.22583e-05
 Reference value :  3.22636e-05
 Reference value :  3.23181e-05
 Reference value :  3.25000e-05
 Reference value :  3.25001e-05
 Reference value :  3.25002e-05
 Reference value :  3.25003e-05
 Reference value :  3.25008e-05
 Reference value :  3.25016e-05
 Reference value :  3.25024e-05
 Reference value :  3.25034e-05
 Reference value :  3.25044e-05
 Reference value :  3.25053e-05
 Reference value :  3.25067e-05
 Reference value :  3.25084e-05
 Reference value :  3.25101e-05
 Reference value :  3.25119e-05
 Reference value :  3.25135e-05
 Reference value :  3.25153e-05
 Reference value :  3.25191e-05
 Reference value :  3.25225e-05
 Reference value :  3.25302e-05
 Reference value :  3.25476e-05
 Reference value :  3.26910e-05
 Reference value :  3.27501e-05
 Reference value :  3.27502e-05
 Reference value :  3.27503e-05
 Reference value :  3.27507e-05
 Reference value :  3.27514e-05
 Reference value :  3.27523e-05
 Reference value :  3.27534e-05
 Reference value :  3.27546e-05
 Reference value :  3.27560e-05
 Reference value :  3.27589e-05
 Reference value :  3.27723e-05
 Reference value :  3.28724e-05
 Reference value :  3.30000e-05
 Reference value :  3.30001e-05
 Reference value :  3.30001e-05
 Reference value :  3.30002e-05
 Reference value :  3.30005e-05
 Reference value :  3.30012e-05
 Reference value :  3.30016e-05
 Reference value :  3.30024e-05
 Reference value :  3.30029e-05
 Reference value :  3.30034e-05
 Reference value :  3.30047e-05
 Reference value :  3.30062e-05
 Reference value :  3.30077e-05
 Reference value :  3.30096e-05
 Reference value :  3.30125e-05
 Reference value :  3.30205e-05
 Reference value :  3.30471e-05
 Reference value :  3.32501e-05
 Reference value :  3.32501e-05
 Reference value :  3.32502e-05
 Reference value :  3.32503e-05
 Reference value :  3.32507e-05
 Reference value :  3.32514e-05
 Reference value :  3.32523e-05
 Reference value :  3.32534e-05
 Reference value :  3.32545e-05
 Reference value :  3.32558e-05
 Reference value :  3.32582e-05
 Reference value :  3.32635e-05
 Reference value :  3.33067e-05
 Reference value :  3.35000e-05
 Reference value :  3.35008e-05
 Reference value :  3.35023e-05
 Reference value :  3.35031e-05
 Reference value :  3.35046e-05
 Reference value :  3.35051e-05
 Reference value :  3.35063e-05
 Reference value :  3.35079e-05
 Reference value :  3.35096e-05
 Reference value :  3.35215e-05
 Reference value :  3.36671e-05
 Reference value :  3.37502e-05
 Reference value :  3.37502e-05
 Reference value :  3.37504e-05
 Reference value :  3.37510e-05
 Reference value :  3.37519e-05
 Reference value :  3.37536e-05
 Reference value :  3.37553e-05
 Reference value :  3.37591e-05
 Reference value :  3.38897e-05
 Reference value :  3.40000e-05
 Reference value :  3.40000e-05
 Reference value :  3.40001e-05
 Reference value :  3.40004e-05
 Reference value :  3.40020e-05
 Reference value :  3.40035e-05
 Reference value :  3.40045e-05
 Reference value :  3.40055e-05
 Reference value :  3.40090e-05
 Reference value :  3.40224e-05
 Reference value :  3.40262e-05
 Reference value :  3.40291e-05
 Reference value :  3.40341e-05
 Reference value :  3.40377e-05
 Reference value :  3.40435e-05
 Reference value :  3.40660e-05
 Reference value :  3.40771e-05
 Reference value :  3.40975e-05
 Reference value :  3.41279e-05
 Reference value :  3.41399e-05
 Reference value :  3.41460e-05
 Reference value :  3.41588e-05
 Reference value :  3.41791e-05
 Reference value :  3.42032e-05
 Reference value :  3.42501e-05
 Reference value :  3.42502e-05
 Reference value :  3.42502e-05
 Reference value :  3.42504e-05
 Reference value :  3.42510e-05
 Reference value :  3.42519e-05
 Reference value :  3.42530e-05
 Reference value :  3.42534e-05
 Reference value :  3.42546e-05
 Reference value :  3.42559e-05
 Reference value :  3.42587e-05
 Reference value :  3.42717e-05
 Reference value :  3.42989e-05
 Reference value :  3.43114e-05
 Reference value :  3.43198e-05
 Reference value :  3.43248e-05
 Reference value :  3.43368e-05
 Reference value :  3.43494e-05
 Reference value :  3.44042e-05
 Reference value :  3.45000e-05
 Reference value :  3.45001e-05
 Reference value :  3.45002e-05
 Reference value :  3.45005e-05
 Reference value :  3.45012e-05
 Reference value :  3.45015e-05
 Reference value :  3.45023e-05
 Reference value :  3.45028e-05
 Reference value :  3.45039e-05
 Reference value :  3.45064e-05
 Reference value :  3.45088e-05
 Reference value :  3.45112e-05
 Reference value :  3.45124e-05
 Reference value :  3.45154e-05
 Reference value :  3.45255e-05
 Reference value :  3.46385e-05
 Reference value :  3.47501e-05
 Reference value :  3.47502e-05
 Reference value :  3.47503e-05
 Reference value :  3.47510e-05
 Reference value :  3.47519e-05
 Reference value :  3.47530e-05
 Reference value :  3.47540e-05
 Reference value :  3.47550e-05
 Reference value :  3.47565e-05
 Reference value :  3.47596e-05
 Reference value :  3.47666e-05
 Reference value :  3.48035e-05
 Reference value :  3.50000e-05
 Reference value :  3.50001e-05
 Reference value :  3.50002e-05
 Reference value :  3.50005e-05
 Reference value :  3.50012e-05
 Reference value :  3.50020e-05
 Reference value :  3.50029e-05
 Reference value :  3.50039e-05
 Reference value :  3.50048e-05
 Reference value :  3.50066e-05
 Reference value :  3.50084e-05
 Reference value :  3.50102e-05
 Reference value :  3.50120e-05
 Reference value :  3.50136e-05
 Reference value :  3.50163e-05
 Reference value :  3.50206e-05
 Reference value :  3.50382e-05
 Reference value :  3.50889e-05
 Reference value :  3.52082e-05
 Reference value :  3.52501e-05
 Reference value :  3.52502e-05
 Reference value :  3.52503e-05
 Reference value :  3.52510e-05
 Reference value :  3.52519e-05
 Reference value :  3.52530e-05
 Reference value :  3.52540e-05
 Reference value :  3.52560e-05
 Reference value :  3.52590e-05
 Reference value :  3.52647e-05
 Reference value :  3.52676e-05
 Reference value :  3.52732e-05
 Reference value :  3.52786e-05
 Reference value :  3.53044e-05
 Reference value :  3.53530e-05
 Reference value :  3.54566e-05
 Reference value :  3.55000e-05
 Reference value :  3.55001e-05
 Reference value :  3.55002e-05
 Reference value :  3.55005e-05
 Reference value :  3.55012e-05
 Reference value :  3.55020e-05
 Reference value :  3.55029e-05
 Reference value :  3.55040e-05
 Reference value :  3.55055e-05
 Reference value :  3.55062e-05
 Reference value :  3.55077e-05
 Reference value :  3.55109e-05
 Reference value :  3.55203e-05
 Reference value :  3.55792e-05
 Reference value :  3.57501e-05
 Reference value :  3.57502e-05
 Reference value :  3.57503e-05
 Reference value :  3.57507e-05
 Reference value :  3.57514e-05
 Reference value :  3.57523e-05
 Reference value :  3.57534e-05
 Reference value :  3.57545e-05
 Reference value :  3.57558e-05
 Reference value :  3.57636e-05
 Reference value :  3.58572e-05
 Reference value :  3.60007e-05
 Reference value :  3.60030e-05
 Reference value :  3.60043e-05
 Reference value :  3.60061e-05
 Reference value :  3.60093e-05
 Reference value :  3.60130e-05
 Reference value :  3.60161e-05
 Reference value :  3.60228e-05
 Reference value :  3.60300e-05
 Reference value :  3.60397e-05
 Reference value :  3.60462e-05
 Reference value :  3.60532e-05
 Reference value :  3.60679e-05
 Reference value :  3.60920e-05
 Reference value :  3.62501e-05
 Reference value :  3.62502e-05
 Reference value :  3.62503e-05
 Reference value :  3.62514e-05
 Reference value :  3.62529e-05
 Reference value :  3.62545e-05
 Reference value :  3.62587e-05
 Reference value :  3.62845e-05
 Reference value :  3.65000e-05
 Reference value :  3.65001e-05
 Reference value :  3.65001e-05
 Reference value :  3.65008e-05
 Reference value :  3.65019e-05
 Reference value :  3.65033e-05
 Reference value :  3.65060e-05
 Reference value :  3.65092e-05
 Reference value :  3.65114e-05
 Reference value :  3.65477e-05
 Reference value :  3.67501e-05
 Reference value :  3.67502e-05
 Reference value :  3.67507e-05
 Reference value :  3.67523e-05
 Reference value :  3.67534e-05
 Reference value :  3.67550e-05
 Reference value :  3.67575e-05
 Reference value :  3.67610e-05
 Reference value :  3.68197e-05
 Reference value :  3.70000e-05
 Reference value :  3.70001e-05
 Reference value :  3.70003e-05
 Reference value :  3.70012e-05
 Reference value :  3.70020e-05
 Reference value :  3.70029e-05
 Reference value :  3.70044e-05
 Reference value :  3.70059e-05
 Reference value :  3.70084e-05
 Reference value :  3.70102e-05
 Reference value :  3.70127e-05
 Reference value :  3.70154e-05
 Reference value :  3.70246e-05
 Reference value :  3.70810e-05
 Reference value :  3.72501e-05
 Reference value :  3.72502e-05
 Reference value :  3.72504e-05
 Reference value :  3.72514e-05
 Reference value :  3.72530e-05
 Reference value :  3.72540e-05
 Reference value :  3.72575e-05
 Reference value :  3.72875e-05
 Reference value :  3.75000e-05
 Reference value :  3.75001e-05
 Reference value :  3.75003e-05
 Reference value :  3.75012e-05
 Reference value :  3.75023e-05
 Reference value :  3.75033e-05
 Reference value :  3.75054e-05
 Reference value :  3.75066e-05
 Reference value :  3.75092e-05
 Reference value :  3.75221e-05
 Reference value :  3.77501e-05
 Reference value :  3.77502e-05
 Reference value :  3.77504e-05
 Reference value :  3.77514e-05
 Reference value :  3.77530e-05
 Reference value :  3.77540e-05
 Reference value :  3.77550e-05
 Reference value :  3.77575e-05
 Reference value :  3.77610e-05
 Reference value :  3.78192e-05
 Reference value :  3.80000e-05
 Reference value :  3.80002e-05
 Reference value :  3.80008e-05
 Reference value :  3.80020e-05
 Reference value :  3.80034e-05
 Reference value :  3.80048e-05
 Reference value :  3.80076e-05
 Reference value :  3.80102e-05
 Reference value :  3.80136e-05
 Reference value :  3.80174e-05
 Reference value :  3.80405e-05
 Reference value :  3.81016e-05
 Reference value :  3.81319e-05
 Reference value :  3.82501e-05
 Reference value :  3.82502e-05
 Reference value :  3.82510e-05
 Reference value :  3.82519e-05
 Reference value :  3.82534e-05
 Reference value :  3.82560e-05
 Reference value :  3.82875e-05
 Reference value :  3.85001e-05
 Reference value :  3.85005e-05
 Reference value :  3.85015e-05
 Reference value :  3.85028e-05
 Reference value :  3.85047e-05
 Reference value :  3.85062e-05
 Reference value :  3.85077e-05
 Reference value :  3.85095e-05
 Reference value :  3.85157e-05
 Reference value :  3.86090e-05
 Reference value :  3.87501e-05
 Reference value :  3.87502e-05
 Reference value :  3.87502e-05
 Reference value :  3.87504e-05
 Reference value :  3.87514e-05
 Reference value :  3.87530e-05
 Reference value :  3.87534e-05
 Reference value :  3.87545e-05
 Reference value :  3.87558e-05
 Reference value :  3.87575e-05
 Reference value :  3.87596e-05
 Reference value :  3.87673e-05
 Reference value :  3.88779e-05
 Reference value :  3.90001e-05
 Reference value :  3.90002e-05
 Reference value :  3.90012e-05
 Reference value :  3.90024e-05
 Reference value :  3.90039e-05
 Reference value :  3.90059e-05
 Reference value :  3.90084e-05
 Reference value :  3.90111e-05
 Reference value :  3.90135e-05
 Reference value :  3.90173e-05
 Reference value :  3.90374e-05
 Reference value :  3.90686e-05
 Reference value :  3.91073e-05
 Reference value :  3.91418e-05
 Reference value :  3.92501e-05
 Reference value :  3.92502e-05
 Reference value :  3.92503e-05
 Reference value :  3.92514e-05
 Reference value :  3.92530e-05
 Reference value :  3.92546e-05
 Reference value :  3.92590e-05
 Reference value :  3.93168e-05
 Reference value :  3.95000e-05
 Reference value :  3.95001e-05
 Reference value :  3.95003e-05
 Reference value :  3.95012e-05
 Reference value :  3.95019e-05
 Reference value :  3.95028e-05
 Reference value :  3.95039e-05
 Reference value :  3.95054e-05
 Reference value :  3.95066e-05
 Reference value :  3.95084e-05
 Reference value :  3.95103e-05
 Reference value :  3.95315e-05
 Reference value :  3.97501e-05
 Reference value :  3.97502e-05
 Reference value :  3.97502e-05
 Reference value :  3.97507e-05
 Reference value :  3.97519e-05
 Reference value :  3.97534e-05
 Reference value :  3.97545e-05
 Reference value :  3.97566e-05
 Reference value :  3.97596e-05
 Reference value :  3.97747e-05
 Reference value :  4.00000e-05
 Reference value :  4.00001e-05
 Reference value :  4.00005e-05
 Reference value :  4.00016e-05
 Reference value :  4.00029e-05
 Reference value :  4.00044e-05
 Reference value :  4.00059e-05
 Reference value :  4.00076e-05
 Reference value :  4.00093e-05
 Reference value :  4.00102e-05
 Reference value :  4.00119e-05
 Reference value :  4.00134e-05
 Reference value :  4.00159e-05
 Reference value :  4.00183e-05
 Reference value :  4.00270e-05
 Reference value :  4.00432e-05
 Reference value :  4.00509e-05
 Reference value :  4.00668e-05
 Reference value :  4.00960e-05
 Reference value :  4.01535e-05
 Reference value :  4.02501e-05
 Reference value :  4.02502e-05
 Reference value :  4.02510e-05
 Reference value :  4.02523e-05
 Reference value :  4.02534e-05
 Reference value :  4.02560e-05
 Reference value :  4.02723e-05
 Reference value :  4.04862e-05
 Reference value :  4.05001e-05
 Reference value :  4.05002e-05
 Reference value :  4.05008e-05
 Reference value :  4.05020e-05
 Reference value :  4.05034e-05
 Reference value :  4.05055e-05
 Reference value :  4.05069e-05
 Reference value :  4.05087e-05
 Reference value :  4.05155e-05
 Reference value :  4.06525e-05
 Reference value :  4.07502e-05
 Reference value :  4.07503e-05
 Reference value :  4.07510e-05
 Reference value :  4.07523e-05
 Reference value :  4.07534e-05
 Reference value :  4.07550e-05
 Reference value :  4.07582e-05
 Reference value :  4.08072e-05
 Reference value :  4.10007e-05
 Reference value :  4.10030e-05
 Reference value :  4.10043e-05
 Reference value :  4.10056e-05
 Reference value :  4.10070e-05
 Reference value :  4.10093e-05
 Reference value :  4.10119e-05
 Reference value :  4.10129e-05
 Reference value :  4.10159e-05
 Reference value :  4.10198e-05
 Reference value :  4.10351e-05
 Reference value :  4.10571e-05
 Reference value :  4.11782e-05
 Reference value :  4.12502e-05
 Reference value :  4.12503e-05
 Reference value :  4.12507e-05
 Reference value :  4.12514e-05
 Reference value :  4.12529e-05
 Reference value :  4.12539e-05
 Reference value :  4.12573e-05
 Reference value :  4.12648e-05
 Reference value :  4.14710e-05
 Reference value :  4.15001e-05
 Reference value :  4.15002e-05
 Reference value :  4.15012e-05
 Reference value :  4.15019e-05
 Reference value :  4.15028e-05
 Reference value :  4.15046e-05
 Reference value :  4.15060e-05
 Reference value :  4.15075e-05
 Reference value :  4.15092e-05
 Reference value :  4.15103e-05
 Reference value :  4.15167e-05
 Reference value :  4.15475e-05
 Reference value :  4.17501e-05
 Reference value :  4.17502e-05
 Reference value :  4.17502e-05
 Reference value :  4.17504e-05
 Reference value :  4.17514e-05
 Reference value :  4.17523e-05
 Reference value :  4.17534e-05
 Reference value :  4.17545e-05
 Reference value :  4.17558e-05
 Reference value :  4.17575e-05
 Reference value :  4.17596e-05
 Reference value :  4.17896e-05
 Reference value :  4.20000e-05
 Reference value :  4.20001e-05
 Reference value :  4.20002e-05
 Reference value :  4.20008e-05
 Reference value :  4.20016e-05
 Reference value :  4.20029e-05
 Reference value :  4.20039e-05
 Reference value :  4.20048e-05
 Reference value :  4.20059e-05
 Reference value :  4.20074e-05
 Reference value :  4.20090e-05
 Reference value :  4.20109e-05
 Reference value :  4.20144e-05
 Reference value :  4.20218e-05
 Reference value :  4.20402e-05
 Reference value :  4.20714e-05
 Reference value :  4.21192e-05
 Reference value :  4.21499e-05
 Reference value :  4.21701e-05
 Reference value :  4.22170e-05
 Reference value :  4.22501e-05
 Reference value :  4.22502e-05
 Reference value :  4.22502e-05
 Reference value :  4.22504e-05
 Reference value :  4.22510e-05
 Reference value :  4.22519e-05
 Reference value :  4.22536e-05
 Reference value :  4.22553e-05
 Reference value :  4.22577e-05
 Reference value :  4.22750e-05
 Reference value :  4.24891e-05
 Reference value :  4.25000e-05
 Reference value :  4.25000e-05
 Reference value :  4.25000e-05
 Reference value :  4.25000e-05
 Reference value :  4.25001e-05
 Reference value :  4.25001e-05
 Reference value :  4.25004e-05
 Reference value :  4.25012e-05
 Reference value :  4.25020e-05
 Reference value :  4.25029e-05
 Reference value :  4.25040e-05
 Reference value :  4.25045e-05
 Reference value :  4.25055e-05
 Reference value :  4.25120e-05
 Reference value :  4.25224e-05
 Reference value :  4.25262e-05
 Reference value :  4.25291e-05
 Reference value :  4.25361e-05
 Reference value :  4.25429e-05
 Reference value :  4.25528e-05
 Reference value :  4.25712e-05
 Reference value :  4.25850e-05
 Reference value :  4.26102e-05
 Reference value :  4.26241e-05
 Reference value :  4.26415e-05
 Reference value :  4.26553e-05
 Reference value :  4.26809e-05
 Reference value :  4.27501e-05
 Reference value :  4.27502e-05
 Reference value :  4.27503e-05
 Reference value :  4.27510e-05
 Reference value :  4.27519e-05
 Reference value :  4.27530e-05
 Reference value :  4.27540e-05
 Reference value :  4.27552e-05
 Reference value :  4.27587e-05
 Reference value :  4.27853e-05
 Reference value :  4.27993e-05
 Reference value :  4.28205e-05
 Reference value :  4.28316e-05
 Reference value :  4.28793e-05
 Reference value :  4.30000e-05
 Reference value :  4.30002e-05
 Reference value :  4.30008e-05
 Reference value :  4.30015e-05
 Reference value :  4.30028e-05
 Reference value :  4.30046e-05
 Reference value :  4.30064e-05
 Reference value :  4.30088e-05
 Reference value :  4.30112e-05
 Reference value :  4.30137e-05
 Reference value :  4.30172e-05
 Reference value :  4.30334e-05
 Reference value :  4.32501e-05
 Reference value :  4.32502e-05
 Reference value :  4.32502e-05
 Reference value :  4.32510e-05
 Reference value :  4.32519e-05
 Reference value :  4.32530e-05
 Reference value :  4.32540e-05
 Reference value :  4.32550e-05
 Reference value :  4.32565e-05
 Reference value :  4.32609e-05
 Reference value :  4.33043e-05
 Reference value :  4.35012e-05
 Reference value :  4.35049e-05
 Reference value :  4.35071e-05
 Reference value :  4.35103e-05
 Reference value :  4.35124e-05
 Reference value :  4.35143e-05
 Reference value :  4.35162e-05
 Reference value :  4.35273e-05
 Reference value :  4.36659e-05
 Reference value :  4.37501e-05
 Reference value :  4.37502e-05
 Reference value :  4.37504e-05
 Reference value :  4.37514e-05
 Reference value :  4.37533e-05
 Reference value :  4.37549e-05
 Reference value :  4.37591e-05
 Reference value :  4.37631e-05
 Reference value :  4.37777e-05
 Reference value :  4.38682e-05
 Reference value :  4.40000e-05
 Reference value :  4.40001e-05
 Reference value :  4.40008e-05
 Reference value :  4.40020e-05
 Reference value :  4.40034e-05
 Reference value :  4.40062e-05
 Reference value :  4.40086e-05
 Reference value :  4.40155e-05
 Reference value :  4.40797e-05
 Reference value :  4.42501e-05
 Reference value :  4.42502e-05
 Reference value :  4.42503e-05
 Reference value :  4.42510e-05
 Reference value :  4.42519e-05
 Reference value :  4.42534e-05
 Reference value :  4.42545e-05
 Reference value :  4.42558e-05
 Reference value :  4.42696e-05
 Reference value :  4.43554e-05
 Reference value :  4.45000e-05
 Reference value :  4.45001e-05
 Reference value :  4.45002e-05
 Reference value :  4.45008e-05
 Reference value :  4.45016e-05
 Reference value :  4.45029e-05
 Reference value :  4.45045e-05
 Reference value :  4.45055e-05
 Reference value :  4.45085e-05
 Reference value :  4.45112e-05
 Reference value :  4.45143e-05
 Reference value :  4.45174e-05
 Reference value :  4.45286e-05
 Reference value :  4.45348e-05
 Reference value :  4.45405e-05
 Reference value :  4.45467e-05
 Reference value :  4.45676e-05
 Reference value :  4.46045e-05
 Reference value :  4.47501e-05
 Reference value :  4.47502e-05
 Reference value :  4.47503e-05
 Reference value :  4.47510e-05
 Reference value :  4.47519e-05
 Reference value :  4.47530e-05
 Reference value :  4.47539e-05
 Reference value :  4.47573e-05
 Reference value :  4.48135e-05
 Reference value :  4.50000e-05
 Reference value :  4.50001e-05
 Reference value :  4.50005e-05
 Reference value :  4.50015e-05
 Reference value :  4.50028e-05
 Reference value :  4.50039e-05
 Reference value :  4.50054e-05
 Reference value :  4.50060e-05
 Reference value :  4.50075e-05
 Reference value :  4.50092e-05
 Reference value :  4.50103e-05
 Reference value :  4.50136e-05
 Reference value :  4.50474e-05
 Reference value :  4.52501e-05
 Reference value :  4.52502e-05
 Reference value :  4.52503e-05
 Reference value :  4.52507e-05
 Reference value :  4.52514e-05
 Reference value :  4.52523e-05
 Reference value :  4.52534e-05
 Reference value :  4.52545e-05
 Reference value :  4.52558e-05
 Reference value :  4.52575e-05
 Reference value :  4.52596e-05
 Reference value :  4.52674e-05
 Reference value :  4.53199e-05
 Reference value :  4.55000e-05
 Reference value :  4.55001e-05
 Reference value :  4.55001e-05
 Reference value :  4.55002e-05
 Reference value :  4.55005e-05
 Reference value :  4.55012e-05
 Reference value :  4.55020e-05
 Reference value :  4.55029e-05
 Reference value :  4.55039e-05
 Reference value :  4.55048e-05
 Reference value :  4.55066e-05
 Reference value :  4.55076e-05
 Reference value :  4.55093e-05
 Reference value :  4.55102e-05
 Reference value :  4.55119e-05
 Reference value :  4.55154e-05
 Reference value :  4.55210e-05
 Reference value :  4.55811e-05
 Reference value :  4.57320e-05
 Reference value :  4.57502e-05
 Reference value :  4.57503e-05
 Reference value :  4.57507e-05
 Reference value :  4.57519e-05
 Reference value :  4.57534e-05
 Reference value :  4.57553e-05
 Reference value :  4.57654e-05
 Reference value :  4.58757e-05
 Reference value :  4.60001e-05
 Reference value :  4.60005e-05
 Reference value :  4.60011e-05
 Reference value :  4.60018e-05
 Reference value :  4.60027e-05
 Reference value :  4.60038e-05
 Reference value :  4.60053e-05
 Reference value :  4.60060e-05
 Reference value :  4.60076e-05
 Reference value :  4.60094e-05
 Reference value :  4.60140e-05
 Reference value :  4.60628e-05
 Reference value :  4.62501e-05
 Reference value :  4.62502e-05
 Reference value :  4.62503e-05
 Reference value :  4.62507e-05
 Reference value :  4.62514e-05
 Reference value :  4.62523e-05
 Reference value :  4.62534e-05
 Reference value :  4.62545e-05
 Reference value :  4.62558e-05
[...]
 Reference value :  1.66000e-04
 Reference value :  1.66000e-04
 Reference value :  1.66001e-04
 Reference value :  1.66002e-04
 Reference value :  1.66003e-04
 Reference value :  1.66004e-04
 Reference value :  1.66005e-04
 Reference value :  1.66006e-04
 Reference value :  1.66007e-04
 Reference value :  1.66009e-04
 Reference value :  1.66011e-04
 Reference value :  1.66022e-04
 Reference value :  1.66079e-04
 Reference value :  1.66250e-04
 Reference value :  1.66250e-04
 Reference value :  1.66250e-04
 Reference value :  1.66250e-04
 Reference value :  1.66251e-04
 Reference value :  1.66252e-04
 Reference value :  1.66253e-04
 Reference value :  1.66253e-04
 Reference value :  1.66254e-04
 Reference value :  1.66256e-04
 Reference value :  1.66257e-04
 Reference value :  1.66260e-04
 Reference value :  1.66267e-04
 Reference value :  1.66378e-04
 Reference value :  1.66500e-04
 Reference value :  1.66500e-04
 Reference value :  1.66500e-04
 Reference value :  1.66501e-04
 Reference value :  1.66502e-04
 Reference value :  1.66503e-04
 Reference value :  1.66505e-04
 Reference value :  1.66507e-04
 Reference value :  1.66509e-04
 Reference value :  1.66511e-04
 Reference value :  1.66514e-04
 Reference value :  1.66517e-04
 Reference value :  1.66521e-04
 Reference value :  1.66527e-04
 Reference value :  1.66533e-04
 Reference value :  1.66540e-04
 Reference value :  1.66587e-04
 Reference value :  1.66750e-04
 Reference value :  1.66750e-04
 Reference value :  1.66750e-04
 Reference value :  1.66751e-04
 Reference value :  1.66751e-04
 Reference value :  1.66753e-04
 Reference value :  1.66754e-04
 Reference value :  1.66756e-04
 Reference value :  1.66772e-04
 Reference value :  1.66987e-04
 Reference value :  1.67000e-04
 Reference value :  1.67000e-04
 Reference value :  1.67001e-04
 Reference value :  1.67002e-04
 Reference value :  1.67003e-04
 Reference value :  1.67004e-04
 Reference value :  1.67006e-04
 Reference value :  1.67007e-04
 Reference value :  1.67009e-04
 Reference value :  1.67012e-04
 Reference value :  1.67047e-04
 Reference value :  1.67250e-04
 Reference value :  1.67250e-04
 Reference value :  1.67251e-04
 Reference value :  1.67252e-04
 Reference value :  1.67253e-04
 Reference value :  1.67255e-04
 Reference value :  1.67257e-04
 Reference value :  1.67270e-04
 Reference value :  1.67456e-04
 Reference value :  1.67500e-04
 Reference value :  1.67500e-04
 Reference value :  1.67500e-04
 Reference value :  1.67501e-04
 Reference value :  1.67502e-04
 Reference value :  1.67503e-04
 Reference value :  1.67504e-04
 Reference value :  1.67506e-04
 Reference value :  1.67508e-04
 Reference value :  1.67511e-04
 Reference value :  1.67512e-04
 Reference value :  1.67514e-04
 Reference value :  1.67516e-04
 Reference value :  1.67521e-04
 Reference value :  1.67537e-04
 Reference value :  1.67578e-04
 Reference value :  1.67632e-04
 Reference value :  1.67695e-04
 Reference value :  1.67750e-04
 Reference value :  1.67750e-04
 Reference value :  1.67750e-04
 Reference value :  1.67750e-04
 Reference value :  1.67750e-04
 Reference value :  1.67750e-04
 Reference value :  1.67751e-04
 Reference value :  1.67751e-04
 Reference value :  1.67752e-04
 Reference value :  1.67753e-04
 Reference value :  1.67754e-04
 Reference value :  1.67756e-04
 Reference value :  1.67761e-04
 Reference value :  1.67786e-04
 Reference value :  1.67980e-04
 Reference value :  1.68000e-04
 Reference value :  1.68000e-04
 Reference value :  1.68000e-04
 Reference value :  1.68001e-04
 Reference value :  1.68002e-04
 Reference value :  1.68003e-04
 Reference value :  1.68004e-04
 Reference value :  1.68005e-04
 Reference value :  1.68006e-04
 Reference value :  1.68007e-04
 Reference value :  1.68010e-04
 Reference value :  1.68022e-04
 Reference value :  1.68078e-04
 Reference value :  1.68250e-04
 Reference value :  1.68250e-04
 Reference value :  1.68250e-04
 Reference value :  1.68250e-04
 Reference value :  1.68251e-04
 Reference value :  1.68251e-04
 Reference value :  1.68252e-04
 Reference value :  1.68253e-04
 Reference value :  1.68254e-04
 Reference value :  1.68256e-04
 Reference value :  1.68257e-04
 Reference value :  1.68260e-04
 Reference value :  1.68267e-04
 Reference value :  1.68319e-04
 Reference value :  1.68495e-04
 Reference value :  1.68500e-04
 Reference value :  1.68500e-04
 Reference value :  1.68500e-04
 Reference value :  1.68501e-04
 Reference value :  1.68501e-04
 Reference value :  1.68502e-04
 Reference value :  1.68502e-04
 Reference value :  1.68503e-04
 Reference value :  1.68504e-04
 Reference value :  1.68505e-04
 Reference value :  1.68508e-04
 Reference value :  1.68509e-04
 Reference value :  1.68511e-04
 Reference value :  1.68514e-04
 Reference value :  1.68516e-04
 Reference value :  1.68519e-04
 Reference value :  1.68523e-04
 Reference value :  1.68536e-04
 Reference value :  1.68750e-04
 Reference value :  1.68750e-04
 Reference value :  1.68750e-04
 Reference value :  1.68751e-04
 Reference value :  1.68753e-04
 Reference value :  1.68755e-04
 Reference value :  1.68765e-04
 Reference value :  1.69000e-04
 Reference value :  1.69000e-04
 Reference value :  1.69000e-04
 Reference value :  1.69002e-04
 Reference value :  1.69003e-04
 Reference value :  1.69005e-04
 Reference value :  1.69006e-04
 Reference value :  1.69009e-04
 Reference value :  1.69020e-04
 Reference value :  1.69250e-04
 Reference value :  1.69250e-04
 Reference value :  1.69251e-04
 Reference value :  1.69252e-04
 Reference value :  1.69253e-04
 Reference value :  1.69255e-04
 Reference value :  1.69260e-04
 Reference value :  1.69455e-04
 Reference value :  1.69500e-04
 Reference value :  1.69500e-04
 Reference value :  1.69501e-04
 Reference value :  1.69502e-04
 Reference value :  1.69505e-04
 Reference value :  1.69506e-04
 Reference value :  1.69509e-04
 Reference value :  1.69565e-04
 Reference value :  1.69750e-04
 Reference value :  1.69750e-04
 Reference value :  1.69750e-04
 Reference value :  1.69751e-04
 Reference value :  1.69752e-04
 Reference value :  1.69754e-04
 Reference value :  1.69758e-04
 Reference value :  1.69822e-04
 Reference value :  1.70000e-04
 Reference value :  1.70000e-04
 Reference value :  1.70000e-04
 Reference value :  1.70000e-04
 Reference value :  1.70002e-04
 Reference value :  1.70003e-04
 Reference value :  1.70004e-04
 Reference value :  1.70006e-04
 Reference value :  1.70017e-04
 Reference value :  1.70022e-04
 Reference value :  1.70026e-04
 Reference value :  1.70029e-04
 Reference value :  1.70034e-04
 Reference value :  1.70038e-04
 Reference value :  1.70041e-04
 Reference value :  1.70050e-04
 Reference value :  1.70065e-04
 Reference value :  1.70155e-04
 Reference value :  1.70250e-04
 Reference value :  1.70250e-04
 Reference value :  1.70250e-04
 Reference value :  1.70250e-04
 Reference value :  1.70251e-04
 Reference value :  1.70251e-04
 Reference value :  1.70252e-04
 Reference value :  1.70253e-04
 Reference value :  1.70255e-04
 Reference value :  1.70261e-04
 Reference value :  1.70304e-04
 Reference value :  1.70321e-04
 Reference value :  1.70341e-04
 Reference value :  1.70361e-04
 Reference value :  1.70419e-04
 Reference value :  1.70500e-04
 Reference value :  1.70500e-04
 Reference value :  1.70500e-04
 Reference value :  1.70501e-04
 Reference value :  1.70502e-04
 Reference value :  1.70502e-04
 Reference value :  1.70503e-04
 Reference value :  1.70504e-04
 Reference value :  1.70506e-04
 Reference value :  1.70509e-04
 Reference value :  1.70511e-04
 Reference value :  1.70514e-04
 Reference value :  1.70517e-04
 Reference value :  1.70533e-04
 Reference value :  1.70640e-04
 Reference value :  1.70750e-04
 Reference value :  1.70750e-04
 Reference value :  1.70750e-04
 Reference value :  1.70751e-04
 Reference value :  1.70752e-04
 Reference value :  1.70753e-04
 Reference value :  1.70753e-04
 Reference value :  1.70754e-04
 Reference value :  1.70756e-04
 Reference value :  1.70757e-04
 Reference value :  1.70760e-04
 Reference value :  1.70763e-04
 Reference value :  1.70783e-04
 Reference value :  1.70932e-04
 Reference value :  1.71000e-04
 Reference value :  1.71000e-04
 Reference value :  1.71000e-04
 Reference value :  1.71000e-04
 Reference value :  1.71001e-04
 Reference value :  1.71002e-04
 Reference value :  1.71002e-04
 Reference value :  1.71003e-04
 Reference value :  1.71004e-04
 Reference value :  1.71005e-04
 Reference value :  1.71006e-04
 Reference value :  1.71007e-04
 Reference value :  1.71009e-04
 Reference value :  1.71010e-04
 Reference value :  1.71012e-04
 Reference value :  1.71014e-04
 Reference value :  1.71016e-04
 Reference value :  1.71021e-04
 Reference value :  1.71055e-04
 Reference value :  1.71209e-04
 Reference value :  1.71250e-04
 Reference value :  1.71250e-04
 Reference value :  1.71250e-04
 Reference value :  1.71250e-04
 Reference value :  1.71250e-04
 Reference value :  1.71251e-04
 Reference value :  1.71252e-04
 Reference value :  1.71253e-04
 Reference value :  1.71254e-04
 Reference value :  1.71256e-04
 Reference value :  1.71258e-04
 Reference value :  1.71266e-04
 Reference value :  1.71287e-04
 Reference value :  1.71442e-04
 Reference value :  1.71500e-04
 Reference value :  1.71500e-04
 Reference value :  1.71500e-04
 Reference value :  1.71501e-04
 Reference value :  1.71502e-04
 Reference value :  1.71503e-04
 Reference value :  1.71504e-04
 Reference value :  1.71506e-04
 Reference value :  1.71509e-04
 Reference value :  1.71516e-04
 Reference value :  1.71584e-04
 Reference value :  1.71750e-04
 Reference value :  1.71750e-04
 Reference value :  1.71751e-04
 Reference value :  1.71752e-04
 Reference value :  1.71753e-04
 Reference value :  1.71754e-04
 Reference value :  1.71756e-04
 Reference value :  1.71764e-04
 Reference value :  1.71857e-04
 Reference value :  1.72000e-04
 Reference value :  1.72000e-04
 Reference value :  1.72000e-04
 Reference value :  1.72001e-04
 Reference value :  1.72001e-04
 Reference value :  1.72002e-04
 Reference value :  1.72002e-04
 Reference value :  1.72003e-04
 Reference value :  1.72004e-04
 Reference value :  1.72006e-04
 Reference value :  1.72008e-04
 Reference value :  1.72011e-04
 Reference value :  1.72013e-04
 Reference value :  1.72015e-04
 Reference value :  1.72017e-04
 Reference value :  1.72021e-04
 Reference value :  1.72029e-04
 Reference value :  1.72038e-04
 Reference value :  1.72042e-04
 Reference value :  1.72048e-04
 Reference value :  1.72055e-04
 Reference value :  1.72064e-04
 Reference value :  1.72082e-04
 Reference value :  1.72139e-04
 Reference value :  1.72250e-04
 Reference value :  1.72250e-04
 Reference value :  1.72250e-04
 Reference value :  1.72251e-04
 Reference value :  1.72251e-04
 Reference value :  1.72252e-04
 Reference value :  1.72253e-04
 Reference value :  1.72255e-04
 Reference value :  1.72265e-04
 Reference value :  1.72369e-04
 Reference value :  1.72500e-04
 Reference value :  1.72500e-04
 Reference value :  1.72501e-04
 Reference value :  1.72502e-04
 Reference value :  1.72503e-04
 Reference value :  1.72504e-04
 Reference value :  1.72505e-04
 Reference value :  1.72507e-04
 Reference value :  1.72508e-04
 Reference value :  1.72510e-04
 Reference value :  1.72522e-04
 Reference value :  1.72579e-04
 Reference value :  1.72750e-04
 Reference value :  1.72750e-04
 Reference value :  1.72750e-04
 Reference value :  1.72750e-04
 Reference value :  1.72751e-04
 Reference value :  1.72752e-04
 Reference value :  1.72753e-04
 Reference value :  1.72754e-04
 Reference value :  1.72755e-04
 Reference value :  1.72757e-04
 Reference value :  1.72760e-04
 Reference value :  1.72790e-04
 Reference value :  1.73000e-04
 Reference value :  1.73000e-04
 Reference value :  1.73000e-04
 Reference value :  1.73001e-04
 Reference value :  1.73002e-04
 Reference value :  1.73003e-04
 Reference value :  1.73004e-04
 Reference value :  1.73005e-04
 Reference value :  1.73008e-04
 Reference value :  1.73009e-04
 Reference value :  1.73011e-04
 Reference value :  1.73013e-04
 Reference value :  1.73014e-04
 Reference value :  1.73015e-04
 Reference value :  1.73017e-04
 Reference value :  1.73021e-04
 Reference value :  1.73042e-04
 Reference value :  1.73116e-04
 Reference value :  1.73194e-04
 Reference value :  1.73250e-04
 Reference value :  1.73250e-04
 Reference value :  1.73250e-04
 Reference value :  1.73251e-04
 Reference value :  1.73252e-04
 Reference value :  1.73253e-04
 Reference value :  1.73254e-04
 Reference value :  1.73256e-04
 Reference value :  1.73273e-04
 Reference value :  1.73500e-04
 Reference value :  1.73500e-04
 Reference value :  1.73500e-04
 Reference value :  1.73502e-04
 Reference value :  1.73503e-04
 Reference value :  1.73505e-04
 Reference value :  1.73506e-04
 Reference value :  1.73507e-04
 Reference value :  1.73510e-04
 Reference value :  1.73522e-04
 Reference value :  1.73750e-04
 Reference value :  1.73750e-04
 Reference value :  1.73750e-04
 Reference value :  1.73750e-04
 Reference value :  1.73751e-04
 Reference value :  1.73751e-04
 Reference value :  1.73752e-04
 Reference value :  1.73753e-04
 Reference value :  1.73754e-04
 Reference value :  1.73756e-04
 Reference value :  1.73758e-04
 Reference value :  1.73764e-04
 Reference value :  1.73819e-04
 Reference value :  1.74000e-04
 Reference value :  1.74000e-04
 Reference value :  1.74000e-04
 Reference value :  1.74002e-04
 Reference value :  1.74003e-04
 Reference value :  1.74005e-04
 Reference value :  1.74008e-04
 Reference value :  1.74010e-04
 Reference value :  1.74013e-04
 Reference value :  1.74015e-04
 Reference value :  1.74024e-04
 Reference value :  1.74060e-04
 Reference value :  1.74075e-04
 Reference value :  1.74114e-04
 Reference value :  1.74194e-04
 Reference value :  1.74247e-04
 Reference value :  1.74250e-04
 Reference value :  1.74251e-04
 Reference value :  1.74252e-04
 Reference value :  1.74253e-04
 Reference value :  1.74255e-04
 Reference value :  1.74262e-04
 Reference value :  1.74411e-04
 Reference value :  1.74500e-04
 Reference value :  1.74500e-04
 Reference value :  1.74501e-04
 Reference value :  1.74502e-04
 Reference value :  1.74504e-04
 Reference value :  1.74506e-04
 Reference value :  1.74508e-04
 Reference value :  1.74514e-04
 Reference value :  1.74642e-04
 Reference value :  1.74750e-04
 Reference value :  1.74751e-04
 Reference value :  1.74752e-04
 Reference value :  1.74754e-04
 Reference value :  1.74756e-04
 Reference value :  1.74760e-04
 Reference value :  1.74819e-04
 Reference value :  1.75000e-04
 Reference value :  1.75000e-04
 Reference value :  1.75001e-04
 Reference value :  1.75002e-04
 Reference value :  1.75003e-04
 Reference value :  1.75005e-04
 Reference value :  1.75008e-04
 Reference value :  1.75010e-04
 Reference value :  1.75014e-04
 Reference value :  1.75018e-04
 Reference value :  1.75032e-04
 Reference value :  1.75040e-04
 Reference value :  1.75060e-04
 Reference value :  1.75138e-04
 Reference value :  1.75250e-04
 Reference value :  1.75250e-04
 Reference value :  1.75250e-04
 Reference value :  1.75251e-04
 Reference value :  1.75253e-04
 Reference value :  1.75254e-04
 Reference value :  1.75255e-04
 Reference value :  1.75262e-04
 Reference value :  1.75373e-04
 Reference value :  1.75500e-04
 Reference value :  1.75500e-04
 Reference value :  1.75501e-04
 Reference value :  1.75502e-04
 Reference value :  1.75504e-04
 Reference value :  1.75506e-04
 Reference value :  1.75509e-04
 Reference value :  1.75521e-04
 Reference value :  1.75750e-04
 Reference value :  1.75750e-04
 Reference value :  1.75750e-04
 Reference value :  1.75751e-04
 Reference value :  1.75752e-04
 Reference value :  1.75753e-04
 Reference value :  1.75754e-04
 Reference value :  1.75756e-04
 Reference value :  1.75760e-04
 Reference value :  1.75782e-04
 Reference value :  1.75856e-04
 Reference value :  1.76000e-04
 Reference value :  1.76000e-04
 Reference value :  1.76000e-04
 Reference value :  1.76001e-04
 Reference value :  1.76002e-04
 Reference value :  1.76003e-04
 Reference value :  1.76004e-04
 Reference value :  1.76006e-04
 Reference value :  1.76008e-04
 Reference value :  1.76011e-04
 Reference value :  1.76013e-04
 Reference value :  1.76016e-04
 Reference value :  1.76024e-04
 Reference value :  1.76152e-04
 Reference value :  1.76250e-04
 Reference value :  1.76250e-04
 Reference value :  1.76251e-04
 Reference value :  1.76253e-04
 Reference value :  1.76254e-04
 Reference value :  1.76255e-04
 Reference value :  1.76265e-04
 Reference value :  1.76372e-04
 Reference value :  1.76500e-04
 Reference value :  1.76500e-04
 Reference value :  1.76500e-04
 Reference value :  1.76500e-04
 Reference value :  1.76501e-04
 Reference value :  1.76502e-04
 Reference value :  1.76502e-04
 Reference value :  1.76503e-04
 Reference value :  1.76504e-04
 Reference value :  1.76506e-04
 Reference value :  1.76506e-04
 Reference value :  1.76508e-04
 Reference value :  1.76510e-04
 Reference value :  1.76512e-04
 Reference value :  1.76520e-04
 Reference value :  1.76582e-04
 Reference value :  1.76750e-04
 Reference value :  1.76750e-04
 Reference value :  1.76750e-04
 Reference value :  1.76751e-04
 Reference value :  1.76751e-04
 Reference value :  1.76752e-04
 Reference value :  1.76753e-04
 Reference value :  1.76754e-04
 Reference value :  1.76756e-04
 Reference value :  1.76760e-04
 Reference value :  1.76782e-04
 Reference value :  1.76958e-04
 Reference value :  1.77000e-04
 Reference value :  1.77000e-04
 Reference value :  1.77000e-04
 Reference value :  1.77001e-04
 Reference value :  1.77002e-04
 Reference value :  1.77003e-04
 Reference value :  1.77004e-04
 Reference value :  1.77005e-04
 Reference value :  1.77007e-04
 Reference value :  1.77008e-04
 Reference value :  1.77011e-04
 Reference value :  1.77012e-04
 Reference value :  1.77014e-04
 Reference value :  1.77016e-04
 Reference value :  1.77019e-04
 Reference value :  1.77029e-04
 Reference value :  1.77035e-04
 Reference value :  1.77049e-04
 Reference value :  1.77063e-04
 Reference value :  1.77114e-04
 Reference value :  1.77250e-04
 Reference value :  1.77250e-04
 Reference value :  1.77250e-04
 Reference value :  1.77250e-04
 Reference value :  1.77251e-04
 Reference value :  1.77253e-04
 Reference value :  1.77255e-04
 Reference value :  1.77259e-04
 Reference value :  1.77286e-04
 Reference value :  1.77479e-04
 Reference value :  1.77500e-04
 Reference value :  1.77500e-04
 Reference value :  1.77500e-04
 Reference value :  1.77500e-04
 Reference value :  1.77501e-04
 Reference value :  1.77502e-04
 Reference value :  1.77503e-04
 Reference value :  1.77505e-04
 Reference value :  1.77506e-04
 Reference value :  1.77507e-04
 Reference value :  1.77510e-04
 Reference value :  1.77532e-04
 Reference value :  1.77750e-04
 Reference value :  1.77750e-04
 Reference value :  1.77751e-04
 Reference value :  1.77753e-04
 Reference value :  1.77754e-04
 Reference value :  1.77755e-04
 Reference value :  1.77757e-04
 Reference value :  1.77767e-04
 Reference value :  1.78000e-04
 Reference value :  1.78000e-04
 Reference value :  1.78001e-04
 Reference value :  1.78002e-04
 Reference value :  1.78003e-04
 Reference value :  1.78004e-04
 Reference value :  1.78006e-04
 Reference value :  1.78008e-04
 Reference value :  1.78011e-04
 Reference value :  1.78015e-04
 Reference value :  1.78022e-04
 Reference value :  1.78053e-04
 Reference value :  1.78120e-04
 Reference value :  1.78200e-04
 Reference value :  1.78250e-04
 Reference value :  1.78250e-04
 Reference value :  1.78250e-04
 Reference value :  1.78251e-04
 Reference value :  1.78253e-04
 Reference value :  1.78255e-04
 Reference value :  1.78256e-04
 Reference value :  1.78259e-04
 Reference value :  1.78275e-04
 Reference value :  1.78382e-04
No. of Data Rows : 26361
ngspice-44 done
