
Note: Compatibility modes selected: hs a


Circuit: ** sch_path: /home/ece/cace/sar-adc-using-sky130-pdk/runs/run_2025-09-12_03-13-39/parameters/dnl/run_0/sar_output_dnl.sch

option SCALE: Scale is set to 1e-06 for instance and model parameters
option SCALE: Scale is set to 1e-06 for instance and model parameters
option SCALE: Scale is set to 1e-06 for instance and model parameters
option SCALE: Scale is set to 1e-06 for instance and model parameters
Doing analysis at TEMP = 27.000000 and TNOM = 27.000000

Using KLU as Direct Linear Solver
Operating point simulation skipped by 'uic',
  now using transient initial conditions.
 Reference value :  1.00000e-12
 Reference value :  1.02772e-12
 Reference value :  1.08316e-12
 Reference value :  1.19404e-12
 Reference value :  1.33842e-12
 Reference value :  1.62719e-12
 Reference value :  2.20473e-12
 Reference value :  3.03973e-12
 Reference value :  3.94607e-12
 Reference value :  5.16921e-12
 Reference value :  6.92173e-12
 Reference value :  1.02784e-11
 Reference value :  1.42709e-11
 Reference value :  2.10135e-11
 Reference value :  2.79587e-11
 Reference value :  3.70131e-11
 Reference value :  4.86201e-11
 Reference value :  6.50491e-11
 Reference value :  8.57307e-11
 Reference value :  1.00000e-10
 Reference value :  1.01203e-10
 Reference value :  1.03608e-10
 Reference value :  1.08418e-10
 Reference value :  1.18039e-10
 Reference value :  1.37281e-10
 Reference value :  1.75765e-10
 Reference value :  2.52732e-10
 Reference value :  4.04697e-10
 Reference value :  5.66128e-10
 Reference value :  8.31338e-10
 Reference value :  1.18354e-09
 Reference value :  1.59263e-09
 Reference value :  2.26861e-09
 Reference value :  2.95835e-09
 Reference value :  4.00747e-09
 Reference value :  5.01090e-09
 Reference value :  5.94885e-09
 Reference value :  6.90851e-09
 Reference value :  8.35463e-09
 Reference value :  9.66754e-09
 Reference value :  1.16857e-08
 Reference value :  1.35503e-08
 Reference value :  1.49672e-08
 Reference value :  1.63193e-08
 Reference value :  1.77799e-08
 Reference value :  1.93366e-08
 Reference value :  2.20889e-08
 Reference value :  2.54464e-08
 Reference value :  3.12883e-08
 Reference value :  3.68840e-08
 Reference value :  4.64867e-08
 Reference value :  5.51771e-08
 Reference value :  6.90491e-08
 Reference value :  7.82883e-08
 Reference value :  8.66882e-08
 Reference value :  9.39122e-08
 Reference value :  9.88869e-08
 Reference value :  1.04640e-07
 Reference value :  1.13951e-07
 Reference value :  1.24119e-07
 Reference value :  1.33989e-07
 Reference value :  1.44984e-07
 Reference value :  1.66973e-07
 Reference value :  2.01402e-07
 Reference value :  2.50100e-07
 Reference value :  2.50110e-07
 Reference value :  2.50130e-07
 Reference value :  2.50170e-07
 Reference value :  2.50200e-07
 Reference value :  2.50201e-07
 Reference value :  2.50202e-07
 Reference value :  2.50204e-07
 Reference value :  2.50208e-07
 Reference value :  2.50216e-07
 Reference value :  2.50233e-07
 Reference value :  2.50266e-07
 Reference value :  2.50332e-07
 Reference value :  2.50439e-07
 Reference value :  2.50621e-07
 Reference value :  2.50815e-07
 Reference value :  2.51149e-07
 Reference value :  2.51595e-07
 Reference value :  2.52132e-07
 Reference value :  2.52729e-07
 Reference value :  2.53372e-07
 Reference value :  2.54223e-07
 Reference value :  2.55151e-07
 Reference value :  2.56035e-07
 Reference value :  2.56926e-07
 Reference value :  2.57893e-07
 Reference value :  2.58824e-07
 Reference value :  2.60352e-07
 Reference value :  2.62167e-07
 Reference value :  2.64665e-07
 Reference value :  2.68339e-07
 Reference value :  2.73003e-07
 Reference value :  2.82331e-07
 Reference value :  2.99783e-07
 Reference value :  3.28844e-07
 Reference value :  3.86968e-07
 Reference value :  5.00000e-07
 Reference value :  5.00010e-07
 Reference value :  5.00030e-07
 Reference value :  5.00070e-07
 Reference value :  5.00100e-07
 Reference value :  5.00104e-07
 Reference value :  5.00113e-07
 Reference value :  5.00130e-07
 Reference value :  5.00165e-07
 Reference value :  5.00234e-07
 Reference value :  5.00372e-07
 Reference value :  5.00573e-07
 Reference value :  5.00954e-07
 Reference value :  5.01538e-07
 Reference value :  5.02098e-07
 Reference value :  5.02756e-07
 Reference value :  5.03473e-07
 Reference value :  5.04378e-07
 Reference value :  5.05193e-07
 Reference value :  5.06062e-07
 Reference value :  5.07193e-07
 Reference value :  5.08302e-07
 Reference value :  5.10254e-07
 Reference value :  5.12415e-07
 Reference value :  5.14536e-07
 Reference value :  5.16800e-07
 Reference value :  5.19248e-07
 Reference value :  5.21507e-07
 Reference value :  5.24453e-07
 Reference value :  5.29128e-07
 Reference value :  5.36715e-07
 Reference value :  5.47563e-07
 Reference value :  5.69261e-07
 Reference value :  6.04133e-07
 Reference value :  6.73866e-07
 Reference value :  7.50100e-07
 Reference value :  7.50110e-07
 Reference value :  7.50130e-07
 Reference value :  7.50170e-07
 Reference value :  7.50200e-07
 Reference value :  7.50201e-07
 Reference value :  7.50202e-07
 Reference value :  7.50205e-07
 Reference value :  7.50211e-07
 Reference value :  7.50223e-07
 Reference value :  7.50247e-07
 Reference value :  7.50295e-07
 Reference value :  7.50390e-07
 Reference value :  7.50581e-07
 Reference value :  7.50959e-07
 Reference value :  7.51572e-07
 Reference value :  7.52191e-07
 Reference value :  7.52840e-07
 Reference value :  7.53542e-07
 Reference value :  7.54448e-07
 Reference value :  7.55182e-07
 Reference value :  7.56016e-07
 Reference value :  7.56745e-07
 Reference value :  7.57552e-07
 Reference value :  7.58569e-07
 Reference value :  7.59662e-07
 Reference value :  7.60742e-07
 Reference value :  7.62525e-07
 Reference value :  7.64158e-07
 Reference value :  7.67176e-07
 Reference value :  7.70212e-07
 Reference value :  7.74952e-07
 Reference value :  7.83027e-07
 Reference value :  7.93726e-07
 Reference value :  8.12237e-07
 Reference value :  8.44460e-07
 Reference value :  9.01200e-07
 Reference value :  1.00000e-06
 Reference value :  1.00001e-06
 Reference value :  1.00003e-06
 Reference value :  1.00007e-06
 Reference value :  1.00010e-06
 Reference value :  1.00010e-06
 Reference value :  1.00011e-06
 Reference value :  1.00013e-06
 Reference value :  1.00017e-06
 Reference value :  1.00023e-06
 Reference value :  1.00037e-06
 Reference value :  1.00058e-06
 Reference value :  1.00096e-06
 Reference value :  1.00154e-06
 Reference value :  1.00210e-06
 Reference value :  1.00278e-06
 Reference value :  1.00354e-06
 Reference value :  1.00443e-06
 Reference value :  1.00528e-06
 Reference value :  1.00604e-06
 Reference value :  1.00684e-06
 Reference value :  1.00758e-06
 Reference value :  1.00841e-06
 Reference value :  1.00934e-06
 Reference value :  1.01049e-06
 Reference value :  1.01235e-06
 Reference value :  1.01460e-06
 Reference value :  1.01631e-06
 Reference value :  1.01818e-06
 Reference value :  1.02030e-06
 Reference value :  1.02225e-06
 Reference value :  1.02367e-06
 Reference value :  1.02501e-06
 Reference value :  1.02655e-06
 Reference value :  1.02810e-06
 Reference value :  1.02979e-06
 Reference value :  1.03229e-06
 Reference value :  1.03498e-06
 Reference value :  1.04011e-06
 Reference value :  1.04774e-06
 Reference value :  1.06011e-06
 Reference value :  1.08484e-06
 Reference value :  1.12624e-06
 Reference value :  1.20704e-06
 Reference value :  1.25010e-06
 Reference value :  1.25011e-06
 Reference value :  1.25013e-06
 Reference value :  1.25017e-06
 Reference value :  1.25020e-06
 Reference value :  1.25020e-06
 Reference value :  1.25020e-06
 Reference value :  1.25021e-06
 Reference value :  1.25021e-06
 Reference value :  1.25022e-06
 Reference value :  1.25025e-06
 Reference value :  1.25029e-06
 Reference value :  1.25039e-06
 Reference value :  1.25057e-06
 Reference value :  1.25090e-06
 Reference value :  1.25154e-06
 Reference value :  1.25213e-06
 Reference value :  1.25276e-06
 Reference value :  1.25347e-06
 Reference value :  1.25448e-06
 Reference value :  1.25525e-06
 Reference value :  1.25607e-06
 Reference value :  1.25711e-06
 Reference value :  1.25812e-06
 Reference value :  1.25926e-06
 Reference value :  1.26155e-06
 Reference value :  1.26380e-06
 Reference value :  1.26761e-06
 Reference value :  1.27192e-06
 Reference value :  1.28053e-06
 Reference value :  1.29774e-06
 Reference value :  1.32538e-06
 Reference value :  1.38064e-06
 Reference value :  1.49116e-06
 Reference value :  1.50000e-06
 Reference value :  1.50001e-06
 Reference value :  1.50003e-06
 Reference value :  1.50007e-06
 Reference value :  1.50010e-06
 Reference value :  1.50010e-06
 Reference value :  1.50011e-06
 Reference value :  1.50013e-06
 Reference value :  1.50016e-06
 Reference value :  1.50023e-06
 Reference value :  1.50037e-06
 Reference value :  1.50057e-06
 Reference value :  1.50093e-06
 Reference value :  1.50144e-06
 Reference value :  1.50196e-06
 Reference value :  1.50257e-06
 Reference value :  1.50328e-06
 Reference value :  1.50403e-06
 Reference value :  1.50495e-06
 Reference value :  1.50586e-06
 Reference value :  1.50684e-06
 Reference value :  1.50810e-06
 Reference value :  1.50937e-06
 Reference value :  1.51068e-06
 Reference value :  1.51201e-06
 Reference value :  1.51368e-06
 Reference value :  1.51505e-06
 Reference value :  1.51665e-06
 Reference value :  1.51820e-06
 Reference value :  1.51999e-06
 Reference value :  1.52359e-06
 Reference value :  1.52941e-06
 Reference value :  1.53979e-06
 Reference value :  1.56048e-06
 Reference value :  1.60187e-06
 Reference value :  1.68464e-06
 Reference value :  1.75010e-06
 Reference value :  1.75011e-06
 Reference value :  1.75013e-06
 Reference value :  1.75017e-06
 Reference value :  1.75020e-06
 Reference value :  1.75020e-06
 Reference value :  1.75020e-06
 Reference value :  1.75021e-06
 Reference value :  1.75021e-06
 Reference value :  1.75022e-06
 Reference value :  1.75025e-06
 Reference value :  1.75029e-06
 Reference value :  1.75039e-06
 Reference value :  1.75057e-06
 Reference value :  1.75090e-06
 Reference value :  1.75156e-06
 Reference value :  1.75215e-06
 Reference value :  1.75278e-06
 Reference value :  1.75348e-06
 Reference value :  1.75439e-06
 Reference value :  1.75514e-06
 Reference value :  1.75599e-06
 Reference value :  1.75671e-06
 Reference value :  1.75752e-06
 Reference value :  1.75856e-06
 Reference value :  1.75967e-06
 Reference value :  1.76081e-06
 Reference value :  1.76250e-06
 Reference value :  1.76459e-06
 Reference value :  1.76721e-06
 Reference value :  1.77082e-06
 Reference value :  1.77536e-06
 Reference value :  1.78444e-06
 Reference value :  1.79865e-06
 Reference value :  1.82706e-06
 Reference value :  1.88389e-06
 Reference value :  1.99754e-06
 Reference value :  2.00000e-06
 Reference value :  2.00001e-06
 Reference value :  2.00003e-06
 Reference value :  2.00007e-06
 Reference value :  2.00010e-06
 Reference value :  2.00010e-06
 Reference value :  2.00011e-06
 Reference value :  2.00013e-06
 Reference value :  2.00017e-06
 Reference value :  2.00023e-06
 Reference value :  2.00037e-06
 Reference value :  2.00057e-06
 Reference value :  2.00093e-06
 Reference value :  2.00145e-06
 Reference value :  2.00198e-06
 Reference value :  2.00262e-06
 Reference value :  2.00338e-06
 Reference value :  2.00415e-06
 Reference value :  2.00498e-06
 Reference value :  2.00570e-06
 Reference value :  2.00649e-06
 Reference value :  2.00720e-06
 Reference value :  2.00804e-06
 Reference value :  2.00883e-06
 Reference value :  2.00991e-06
 Reference value :  2.01108e-06
 Reference value :  2.01313e-06
 Reference value :  2.01599e-06
 Reference value :  2.01790e-06
 Reference value :  2.02002e-06
 Reference value :  2.02198e-06
 Reference value :  2.02344e-06
 Reference value :  2.02481e-06
 Reference value :  2.02604e-06
 Reference value :  2.02741e-06
 Reference value :  2.02904e-06
 Reference value :  2.03100e-06
 Reference value :  2.03376e-06
 Reference value :  2.03718e-06
 Reference value :  2.04402e-06
 Reference value :  2.05447e-06
 Reference value :  2.06905e-06
 Reference value :  2.09400e-06
 Reference value :  2.12821e-06
 Reference value :  2.16610e-06
 Reference value :  2.21155e-06
 Reference value :  2.25010e-06
 Reference value :  2.25011e-06
 Reference value :  2.25013e-06
 Reference value :  2.25017e-06
 Reference value :  2.25020e-06
 Reference value :  2.25020e-06
 Reference value :  2.25020e-06
 Reference value :  2.25021e-06
 Reference value :  2.25021e-06
 Reference value :  2.25022e-06
 Reference value :  2.25025e-06
 Reference value :  2.25029e-06
 Reference value :  2.25039e-06
 Reference value :  2.25057e-06
 Reference value :  2.25090e-06
 Reference value :  2.25155e-06
 Reference value :  2.25214e-06
 Reference value :  2.25278e-06
 Reference value :  2.25348e-06
 Reference value :  2.25440e-06
 Reference value :  2.25513e-06
 Reference value :  2.25597e-06
 Reference value :  2.25683e-06
 Reference value :  2.25773e-06
 Reference value :  2.25891e-06
 Reference value :  2.26080e-06
 Reference value :  2.26323e-06
 Reference value :  2.26631e-06
 Reference value :  2.27062e-06
 Reference value :  2.27740e-06
 Reference value :  2.29095e-06
 Reference value :  2.31807e-06
 Reference value :  2.36457e-06
 Reference value :  2.41430e-06
 Reference value :  2.47004e-06
 Reference value :  2.50000e-06
 Reference value :  2.50001e-06
 Reference value :  2.50003e-06
 Reference value :  2.50007e-06
 Reference value :  2.50010e-06
 Reference value :  2.50010e-06
 Reference value :  2.50011e-06
 Reference value :  2.50013e-06
 Reference value :  2.50017e-06
 Reference value :  2.50023e-06
 Reference value :  2.50037e-06
 Reference value :  2.50057e-06
 Reference value :  2.50093e-06
 Reference value :  2.50145e-06
 Reference value :  2.50198e-06
 Reference value :  2.50259e-06
 Reference value :  2.50330e-06
 Reference value :  2.50406e-06
 Reference value :  2.50498e-06
 Reference value :  2.50590e-06
 Reference value :  2.50689e-06
 Reference value :  2.50813e-06
 Reference value :  2.50934e-06
 Reference value :  2.51064e-06
 Reference value :  2.51197e-06
 Reference value :  2.51359e-06
 Reference value :  2.51494e-06
 Reference value :  2.51651e-06
 Reference value :  2.51804e-06
 Reference value :  2.51981e-06
 Reference value :  2.52336e-06
 Reference value :  2.52926e-06
 Reference value :  2.53973e-06
 Reference value :  2.56068e-06
 Reference value :  2.60258e-06
 Reference value :  2.68639e-06
 Reference value :  2.75010e-06
 Reference value :  2.75011e-06
 Reference value :  2.75013e-06
 Reference value :  2.75017e-06
 Reference value :  2.75020e-06
 Reference value :  2.75020e-06
 Reference value :  2.75020e-06
 Reference value :  2.75021e-06
 Reference value :  2.75021e-06
 Reference value :  2.75022e-06
 Reference value :  2.75025e-06
 Reference value :  2.75029e-06
 Reference value :  2.75039e-06
 Reference value :  2.75057e-06
 Reference value :  2.75090e-06
 Reference value :  2.75156e-06
 Reference value :  2.75215e-06
 Reference value :  2.75278e-06
 Reference value :  2.75349e-06
 Reference value :  2.75440e-06
 Reference value :  2.75514e-06
 Reference value :  2.75598e-06
 Reference value :  2.75670e-06
 Reference value :  2.75751e-06
 Reference value :  2.75854e-06
 Reference value :  2.75965e-06
 Reference value :  2.76076e-06
 Reference value :  2.76249e-06
 Reference value :  2.76448e-06
 Reference value :  2.76718e-06
 Reference value :  2.77068e-06
 Reference value :  2.77526e-06
 Reference value :  2.78443e-06
 Reference value :  2.79763e-06
 Reference value :  2.82405e-06
 Reference value :  2.87689e-06
 Reference value :  2.98257e-06
 Reference value :  3.00000e-06
 Reference value :  3.00001e-06
 Reference value :  3.00003e-06
 Reference value :  3.00007e-06
 Reference value :  3.00010e-06
 Reference value :  3.00010e-06
 Reference value :  3.00011e-06
 Reference value :  3.00013e-06
 Reference value :  3.00017e-06
 Reference value :  3.00023e-06
 Reference value :  3.00037e-06
 Reference value :  3.00057e-06
 Reference value :  3.00093e-06
 Reference value :  3.00145e-06
 Reference value :  3.00198e-06
 Reference value :  3.00262e-06
 Reference value :  3.00338e-06
 Reference value :  3.00415e-06
 Reference value :  3.00498e-06
 Reference value :  3.00572e-06
 Reference value :  3.00650e-06
 Reference value :  3.00723e-06
 Reference value :  3.00806e-06
 Reference value :  3.00887e-06
 Reference value :  3.00995e-06
 Reference value :  3.01115e-06
 Reference value :  3.01296e-06
 Reference value :  3.01491e-06
 Reference value :  3.01658e-06
 Reference value :  3.01831e-06
 Reference value :  3.02019e-06
 Reference value :  3.02172e-06
 Reference value :  3.02324e-06
 Reference value :  3.02505e-06
 Reference value :  3.02677e-06
 Reference value :  3.02832e-06
 Reference value :  3.03043e-06
 Reference value :  3.03314e-06
 Reference value :  3.03595e-06
 Reference value :  3.04082e-06
 Reference value :  3.04693e-06
 Reference value :  3.05292e-06
 Reference value :  3.05699e-06
 Reference value :  3.06082e-06
 Reference value :  3.06469e-06
 Reference value :  3.06886e-06
 Reference value :  3.07529e-06
 Reference value :  3.08238e-06
 Reference value :  3.09293e-06
 Reference value :  3.10715e-06
 Reference value :  3.12674e-06
 Reference value :  3.14676e-06
 Reference value :  3.17576e-06
 Reference value :  3.21351e-06
 Reference value :  3.25010e-06
 Reference value :  3.25011e-06
 Reference value :  3.25013e-06
 Reference value :  3.25017e-06
 Reference value :  3.25020e-06
 Reference value :  3.25020e-06
 Reference value :  3.25020e-06
 Reference value :  3.25021e-06
 Reference value :  3.25021e-06
 Reference value :  3.25022e-06
 Reference value :  3.25025e-06
 Reference value :  3.25029e-06
 Reference value :  3.25039e-06
 Reference value :  3.25057e-06
 Reference value :  3.25090e-06
 Reference value :  3.25155e-06
 Reference value :  3.25215e-06
 Reference value :  3.25278e-06
 Reference value :  3.25349e-06
 Reference value :  3.25440e-06
 Reference value :  3.25515e-06
 Reference value :  3.25599e-06
 Reference value :  3.25685e-06
 Reference value :  3.25775e-06
 Reference value :  3.25895e-06
 Reference value :  3.26081e-06
 Reference value :  3.26323e-06
 Reference value :  3.26635e-06
 Reference value :  3.27065e-06
 Reference value :  3.27749e-06
 Reference value :  3.29117e-06
 Reference value :  3.31801e-06
 Reference value :  3.37169e-06
 Reference value :  3.47905e-06
 Reference value :  3.50000e-06
 Reference value :  3.50001e-06
 Reference value :  3.50003e-06
 Reference value :  3.50007e-06
 Reference value :  3.50010e-06
 Reference value :  3.50010e-06
 Reference value :  3.50011e-06
 Reference value :  3.50013e-06
 Reference value :  3.50016e-06
 Reference value :  3.50023e-06
 Reference value :  3.50037e-06
 Reference value :  3.50057e-06
 Reference value :  3.50093e-06
 Reference value :  3.50143e-06
 Reference value :  3.50196e-06
 Reference value :  3.50260e-06
 Reference value :  3.50337e-06
 Reference value :  3.50412e-06
 Reference value :  3.50493e-06
 Reference value :  3.50582e-06
 Reference value :  3.50674e-06
 Reference value :  3.50783e-06
 Reference value :  3.50918e-06
 Reference value :  3.51037e-06
 Reference value :  3.51164e-06
 Reference value :  3.51347e-06
 Reference value :  3.51494e-06
 Reference value :  3.51654e-06
 Reference value :  3.51812e-06
 Reference value :  3.51997e-06
 Reference value :  3.52350e-06
 Reference value :  3.52857e-06
 Reference value :  3.53870e-06
 Reference value :  3.55896e-06
 Reference value :  3.59948e-06
 Reference value :  3.68054e-06
 Reference value :  3.75010e-06
 Reference value :  3.75011e-06
 Reference value :  3.75013e-06
 Reference value :  3.75017e-06
 Reference value :  3.75020e-06
 Reference value :  3.75020e-06
 Reference value :  3.75020e-06
 Reference value :  3.75021e-06
 Reference value :  3.75021e-06
 Reference value :  3.75022e-06
 Reference value :  3.75025e-06
 Reference value :  3.75029e-06
 Reference value :  3.75039e-06
 Reference value :  3.75057e-06
 Reference value :  3.75090e-06
 Reference value :  3.75156e-06
 Reference value :  3.75215e-06
 Reference value :  3.75279e-06
 Reference value :  3.75349e-06
 Reference value :  3.75440e-06
 Reference value :  3.75514e-06
 Reference value :  3.75597e-06
 Reference value :  3.75669e-06
 Reference value :  3.75749e-06
 Reference value :  3.75852e-06
 Reference value :  3.75962e-06
 Reference value :  3.76182e-06
 Reference value :  3.76412e-06
 Reference value :  3.76819e-06
 Reference value :  3.77254e-06
 Reference value :  3.78123e-06
 Reference value :  3.79861e-06
 Reference value :  3.83338e-06
 Reference value :  3.90292e-06
 Reference value :  4.00000e-06
 Reference value :  4.00001e-06
 Reference value :  4.00003e-06
 Reference value :  4.00007e-06
 Reference value :  4.00010e-06
 Reference value :  4.00010e-06
 Reference value :  4.00011e-06
 Reference value :  4.00013e-06
 Reference value :  4.00016e-06
 Reference value :  4.00023e-06
 Reference value :  4.00037e-06
 Reference value :  4.00057e-06
 Reference value :  4.00093e-06
 Reference value :  4.00143e-06
 Reference value :  4.00196e-06
 Reference value :  4.00260e-06
 Reference value :  4.00337e-06
 Reference value :  4.00412e-06
 Reference value :  4.00497e-06
 Reference value :  4.00572e-06
 Reference value :  4.00654e-06
 Reference value :  4.00744e-06
 Reference value :  4.00836e-06
 Reference value :  4.00934e-06
 Reference value :  4.01064e-06
 Reference value :  4.01218e-06
 Reference value :  4.01457e-06
 Reference value :  4.01792e-06
 Reference value :  4.02025e-06
 Reference value :  4.02227e-06
 Reference value :  4.02419e-06
 Reference value :  4.02611e-06
 Reference value :  4.02794e-06
 Reference value :  4.03024e-06
 Reference value :  4.03235e-06
 Reference value :  4.03535e-06
 Reference value :  4.03874e-06
 Reference value :  4.04395e-06
 Reference value :  4.05151e-06
 Reference value :  4.06289e-06
 Reference value :  4.08131e-06
 Reference value :  4.10345e-06
 Reference value :  4.12756e-06
 Reference value :  4.15499e-06
 Reference value :  4.19537e-06
 Reference value :  4.24515e-06
 Reference value :  4.25010e-06
 Reference value :  4.25011e-06
 Reference value :  4.25013e-06
 Reference value :  4.25017e-06
 Reference value :  4.25020e-06
 Reference value :  4.25020e-06
 Reference value :  4.25020e-06
 Reference value :  4.25021e-06
 Reference value :  4.25021e-06
 Reference value :  4.25022e-06
 Reference value :  4.25025e-06
 Reference value :  4.25029e-06
 Reference value :  4.25039e-06
 Reference value :  4.25057e-06
 Reference value :  4.25090e-06
 Reference value :  4.25155e-06
 Reference value :  4.25215e-06
 Reference value :  4.25279e-06
 Reference value :  4.25349e-06
 Reference value :  4.25440e-06
 Reference value :  4.25516e-06
 Reference value :  4.25601e-06
 Reference value :  4.25687e-06
 Reference value :  4.25777e-06
 Reference value :  4.25897e-06
 Reference value :  4.26085e-06
 Reference value :  4.26325e-06
 Reference value :  4.26640e-06
 Reference value :  4.27070e-06
 Reference value :  4.27750e-06
 Reference value :  4.29110e-06
 Reference value :  4.31756e-06
 Reference value :  4.37048e-06
 Reference value :  4.47631e-06
 Reference value :  4.50000e-06
 Reference value :  4.50001e-06
 Reference value :  4.50003e-06
 Reference value :  4.50007e-06
 Reference value :  4.50010e-06
 Reference value :  4.50010e-06
 Reference value :  4.50011e-06
 Reference value :  4.50013e-06
 Reference value :  4.50016e-06
 Reference value :  4.50023e-06
 Reference value :  4.50037e-06
 Reference value :  4.50057e-06
 Reference value :  4.50093e-06
 Reference value :  4.50143e-06
 Reference value :  4.50196e-06
 Reference value :  4.50260e-06
 Reference value :  4.50336e-06
 Reference value :  4.50412e-06
 Reference value :  4.50495e-06
 Reference value :  4.50584e-06
 Reference value :  4.50677e-06
 Reference value :  4.50787e-06
 Reference value :  4.50905e-06
 Reference value :  4.51022e-06
 Reference value :  4.51144e-06
 Reference value :  4.51308e-06
 Reference value :  4.51448e-06
 Reference value :  4.51598e-06
 Reference value :  4.51752e-06
 Reference value :  4.51931e-06
 Reference value :  4.52275e-06
 Reference value :  4.52779e-06
 Reference value :  4.53788e-06
 Reference value :  4.55805e-06
 Reference value :  4.59839e-06
 Reference value :  4.67906e-06
 Reference value :  4.75010e-06
 Reference value :  4.75011e-06
 Reference value :  4.75013e-06
 Reference value :  4.75017e-06
 Reference value :  4.75020e-06
 Reference value :  4.75020e-06
 Reference value :  4.75020e-06
 Reference value :  4.75021e-06
 Reference value :  4.75021e-06
 Reference value :  4.75022e-06
 Reference value :  4.75025e-06
 Reference value :  4.75029e-06
 Reference value :  4.75039e-06
 Reference value :  4.75057e-06
 Reference value :  4.75090e-06
 Reference value :  4.75155e-06
 Reference value :  4.75215e-06
 Reference value :  4.75278e-06
 Reference value :  4.75348e-06
 Reference value :  4.75440e-06
 Reference value :  4.75514e-06
 Reference value :  4.75598e-06
 Reference value :  4.75670e-06
 Reference value :  4.75751e-06
 Reference value :  4.75855e-06
 Reference value :  4.75965e-06
 Reference value :  4.76186e-06
 Reference value :  4.76418e-06
 Reference value :  4.76826e-06
 Reference value :  4.77263e-06
 Reference value :  4.78139e-06
 Reference value :  4.79889e-06
 Reference value :  4.83389e-06
 Reference value :  4.90390e-06
 Reference value :  5.00000e-06
 Reference value :  5.00001e-06
 Reference value :  5.00003e-06
 Reference value :  5.00007e-06
 Reference value :  5.00010e-06
 Reference value :  5.00010e-06
 Reference value :  5.00011e-06
 Reference value :  5.00013e-06
 Reference value :  5.00016e-06
 Reference value :  5.00023e-06
 Reference value :  5.00037e-06
 Reference value :  5.00057e-06
 Reference value :  5.00093e-06
 Reference value :  5.00143e-06
 Reference value :  5.00196e-06
 Reference value :  5.00260e-06
 Reference value :  5.00336e-06
 Reference value :  5.00412e-06
 Reference value :  5.00497e-06
 Reference value :  5.00572e-06
 Reference value :  5.00653e-06
 Reference value :  5.00734e-06
 Reference value :  5.00834e-06
 Reference value :  5.00924e-06
 Reference value :  5.01050e-06
 Reference value :  5.01208e-06
 Reference value :  5.01443e-06
 Reference value :  5.01784e-06
 Reference value :  5.02020e-06
 Reference value :  5.02227e-06
 Reference value :  5.02424e-06
 Reference value :  5.02618e-06
 Reference value :  5.02805e-06
 Reference value :  5.03034e-06
 Reference value :  5.03250e-06
 Reference value :  5.03545e-06
 Reference value :  5.03888e-06
 Reference value :  5.04398e-06
 Reference value :  5.05131e-06
 Reference value :  5.06228e-06
 Reference value :  5.07594e-06
 Reference value :  5.09039e-06
 Reference value :  5.11015e-06
 Reference value :  5.13695e-06
 Reference value :  5.17845e-06
 Reference value :  5.25010e-06
 Reference value :  5.25011e-06
 Reference value :  5.25013e-06
 Reference value :  5.25017e-06
 Reference value :  5.25020e-06
 Reference value :  5.25020e-06
 Reference value :  5.25020e-06
 Reference value :  5.25021e-06
 Reference value :  5.25021e-06
 Reference value :  5.25022e-06
 Reference value :  5.25025e-06
 Reference value :  5.25029e-06
 Reference value :  5.25039e-06
 Reference value :  5.25058e-06
 Reference value :  5.25091e-06
 Reference value :  5.25158e-06
 Reference value :  5.25218e-06
 Reference value :  5.25283e-06
 Reference value :  5.25353e-06
 Reference value :  5.25443e-06
 Reference value :  5.25516e-06
 Reference value :  5.25600e-06
 Reference value :  5.25685e-06
 Reference value :  5.25774e-06
 Reference value :  5.25893e-06
 Reference value :  5.26078e-06
 Reference value :  5.26321e-06
 Reference value :  5.26629e-06
 Reference value :  5.27059e-06
 Reference value :  5.27728e-06
 Reference value :  5.29067e-06
 Reference value :  5.31654e-06
 Reference value :  5.36827e-06
 Reference value :  5.47173e-06
 Reference value :  5.50000e-06
 Reference value :  5.50001e-06
 Reference value :  5.50003e-06
 Reference value :  5.50007e-06
 Reference value :  5.50010e-06
 Reference value :  5.50010e-06
 Reference value :  5.50011e-06
 Reference value :  5.50013e-06
 Reference value :  5.50016e-06
 Reference value :  5.50023e-06
 Reference value :  5.50037e-06
 Reference value :  5.50057e-06
 Reference value :  5.50093e-06
 Reference value :  5.50143e-06
 Reference value :  5.50196e-06
 Reference value :  5.50260e-06
 Reference value :  5.50337e-06
 Reference value :  5.50412e-06
 Reference value :  5.50495e-06
 Reference value :  5.50594e-06
 Reference value :  5.50685e-06
 Reference value :  5.50811e-06
 Reference value :  5.50918e-06
 Reference value :  5.51052e-06
 Reference value :  5.51187e-06
 Reference value :  5.51336e-06
 Reference value :  5.51509e-06
 Reference value :  5.51665e-06
 Reference value :  5.51889e-06
 Reference value :  5.52120e-06
 Reference value :  5.52519e-06
 Reference value :  5.53117e-06
 Reference value :  5.54121e-06
 Reference value :  5.55974e-06
 Reference value :  5.59167e-06
 Reference value :  5.65168e-06
 Reference value :  5.75010e-06
 Reference value :  5.75011e-06
 Reference value :  5.75013e-06
 Reference value :  5.75017e-06
 Reference value :  5.75020e-06
 Reference value :  5.75020e-06
 Reference value :  5.75020e-06
 Reference value :  5.75021e-06
 Reference value :  5.75021e-06
 Reference value :  5.75022e-06
 Reference value :  5.75025e-06
 Reference value :  5.75029e-06
 Reference value :  5.75039e-06
 Reference value :  5.75057e-06
 Reference value :  5.75090e-06
 Reference value :  5.75156e-06
 Reference value :  5.75216e-06
 Reference value :  5.75279e-06
 Reference value :  5.75350e-06
 Reference value :  5.75441e-06
 Reference value :  5.75514e-06
 Reference value :  5.75598e-06
 Reference value :  5.75670e-06
 Reference value :  5.75750e-06
 Reference value :  5.75853e-06
 Reference value :  5.75963e-06
 Reference value :  5.76182e-06
 Reference value :  5.76414e-06
 Reference value :  5.76820e-06
 Reference value :  5.77256e-06
 Reference value :  5.78127e-06
 Reference value :  5.79869e-06
 Reference value :  5.83353e-06
 Reference value :  5.90322e-06
 Reference value :  6.00000e-06
 Reference value :  6.00001e-06
 Reference value :  6.00003e-06
 Reference value :  6.00007e-06
 Reference value :  6.00010e-06
 Reference value :  6.00010e-06
 Reference value :  6.00011e-06
 Reference value :  6.00013e-06
 Reference value :  6.00016e-06
 Reference value :  6.00023e-06
 Reference value :  6.00037e-06
 Reference value :  6.00057e-06
 Reference value :  6.00093e-06
 Reference value :  6.00143e-06
 Reference value :  6.00196e-06
 Reference value :  6.00260e-06
 Reference value :  6.00337e-06
 Reference value :  6.00412e-06
 Reference value :  6.00497e-06
 Reference value :  6.00575e-06
 Reference value :  6.00655e-06
 Reference value :  6.00731e-06
 Reference value :  6.00820e-06
 Reference value :  6.00910e-06
 Reference value :  6.01026e-06
 Reference value :  6.01205e-06
 Reference value :  6.01418e-06
 Reference value :  6.01683e-06
 Reference value :  6.01900e-06
 Reference value :  6.02133e-06
 Reference value :  6.02301e-06
 Reference value :  6.02459e-06
 Reference value :  6.02593e-06
 Reference value :  6.02743e-06
 Reference value :  6.02920e-06
 Reference value :  6.03127e-06
 Reference value :  6.03395e-06
 Reference value :  6.03748e-06
 Reference value :  6.04388e-06
 Reference value :  6.05193e-06
 Reference value :  6.06044e-06
 Reference value :  6.07135e-06
 Reference value :  6.08892e-06
 Reference value :  6.11072e-06
 Reference value :  6.15432e-06
 Reference value :  6.22655e-06
 Reference value :  6.25010e-06
 Reference value :  6.25011e-06
 Reference value :  6.25013e-06
 Reference value :  6.25017e-06
 Reference value :  6.25020e-06
 Reference value :  6.25020e-06
 Reference value :  6.25020e-06
 Reference value :  6.25021e-06
 Reference value :  6.25021e-06
 Reference value :  6.25022e-06
 Reference value :  6.25025e-06
 Reference value :  6.25029e-06
 Reference value :  6.25039e-06
 Reference value :  6.25057e-06
 Reference value :  6.25090e-06
 Reference value :  6.25155e-06
 Reference value :  6.25216e-06
 Reference value :  6.25279e-06
 Reference value :  6.25350e-06
 Reference value :  6.25441e-06
 Reference value :  6.25516e-06
 Reference value :  6.25600e-06
 Reference value :  6.25686e-06
 Reference value :  6.25776e-06
 Reference value :  6.25897e-06
 Reference value :  6.26084e-06
 Reference value :  6.26326e-06
 Reference value :  6.26639e-06
 Reference value :  6.27069e-06
 Reference value :  6.27761e-06
 Reference value :  6.29145e-06
 Reference value :  6.31776e-06
 Reference value :  6.37040e-06
 Reference value :  6.47566e-06
 Reference value :  6.50000e-06
 Reference value :  6.50001e-06
 Reference value :  6.50003e-06
 Reference value :  6.50007e-06
 Reference value :  6.50010e-06
 Reference value :  6.50010e-06
 Reference value :  6.50011e-06
 Reference value :  6.50013e-06
 Reference value :  6.50016e-06
 Reference value :  6.50023e-06
 Reference value :  6.50037e-06
 Reference value :  6.50057e-06
 Reference value :  6.50093e-06
 Reference value :  6.50143e-06
 Reference value :  6.50196e-06
 Reference value :  6.50260e-06
 Reference value :  6.50337e-06
 Reference value :  6.50412e-06
 Reference value :  6.50492e-06
 Reference value :  6.50581e-06
 Reference value :  6.50675e-06
 Reference value :  6.50783e-06
 Reference value :  6.50921e-06
 Reference value :  6.51040e-06
 Reference value :  6.51167e-06
 Reference value :  6.51352e-06
 Reference value :  6.51522e-06
 Reference value :  6.51686e-06
 Reference value :  6.51887e-06
 Reference value :  6.52106e-06
 Reference value :  6.52467e-06
 Reference value :  6.52996e-06
 Reference value :  6.53910e-06
 Reference value :  6.55553e-06
 Reference value :  6.58456e-06
 Reference value :  6.63922e-06
 Reference value :  6.73939e-06
 Reference value :  6.75010e-06
 Reference value :  6.75011e-06
 Reference value :  6.75013e-06
 Reference value :  6.75017e-06
 Reference value :  6.75020e-06
 Reference value :  6.75020e-06
 Reference value :  6.75020e-06
 Reference value :  6.75021e-06
 Reference value :  6.75021e-06
 Reference value :  6.75022e-06
 Reference value :  6.75025e-06
 Reference value :  6.75029e-06
 Reference value :  6.75039e-06
 Reference value :  6.75058e-06
 Reference value :  6.75091e-06
 Reference value :  6.75158e-06
 Reference value :  6.75219e-06
 Reference value :  6.75283e-06
 Reference value :  6.75353e-06
 Reference value :  6.75443e-06
 Reference value :  6.75514e-06
 Reference value :  6.75595e-06
 Reference value :  6.75667e-06
 Reference value :  6.75746e-06
 Reference value :  6.75847e-06
 Reference value :  6.75955e-06
 Reference value :  6.76171e-06
 Reference value :  6.76400e-06
 Reference value :  6.76801e-06
 Reference value :  6.77230e-06
 Reference value :  6.78088e-06
 Reference value :  6.79803e-06
 Reference value :  6.83234e-06
 Reference value :  6.90097e-06
 Reference value :  7.00000e-06
 Reference value :  7.00001e-06
 Reference value :  7.00003e-06
 Reference value :  7.00007e-06
 Reference value :  7.00010e-06
 Reference value :  7.00010e-06
 Reference value :  7.00011e-06
 Reference value :  7.00013e-06
 Reference value :  7.00016e-06
 Reference value :  7.00023e-06
 Reference value :  7.00037e-06
 Reference value :  7.00057e-06
 Reference value :  7.00093e-06
 Reference value :  7.00143e-06
 Reference value :  7.00196e-06
 Reference value :  7.00260e-06
 Reference value :  7.00336e-06
 Reference value :  7.00412e-06
 Reference value :  7.00497e-06
 Reference value :  7.00572e-06
 Reference value :  7.00653e-06
 Reference value :  7.00731e-06
 Reference value :  7.00826e-06
 Reference value :  7.00915e-06
 Reference value :  7.01037e-06
 Reference value :  7.01200e-06
 Reference value :  7.01424e-06
 Reference value :  7.01717e-06
 Reference value :  7.01947e-06
 Reference value :  7.02190e-06
 Reference value :  7.02367e-06
 Reference value :  7.02529e-06
 Reference value :  7.02680e-06
 Reference value :  7.02838e-06
 Reference value :  7.03019e-06
 Reference value :  7.03272e-06
 Reference value :  7.03538e-06
 Reference value :  7.04008e-06
 Reference value :  7.04437e-06
 Reference value :  7.05196e-06
 Reference value :  7.06100e-06
 Reference value :  7.07626e-06
 Reference value :  7.09093e-06
 Reference value :  7.10153e-06
 Reference value :  7.11157e-06
 Reference value :  7.12817e-06
 Reference value :  7.14358e-06
 Reference value :  7.16736e-06
 Reference value :  7.18930e-06
 Reference value :  7.21027e-06
 Reference value :  7.23728e-06
 Reference value :  7.25010e-06
 Reference value :  7.25011e-06
 Reference value :  7.25013e-06
 Reference value :  7.25017e-06
 Reference value :  7.25020e-06
 Reference value :  7.25020e-06
 Reference value :  7.25020e-06
 Reference value :  7.25021e-06
 Reference value :  7.25021e-06
 Reference value :  7.25022e-06
 Reference value :  7.25025e-06
 Reference value :  7.25029e-06
 Reference value :  7.25039e-06
 Reference value :  7.25058e-06
 Reference value :  7.25092e-06
 Reference value :  7.25158e-06
 Reference value :  7.25219e-06
 Reference value :  7.25284e-06
 Reference value :  7.25354e-06
 Reference value :  7.25443e-06
 Reference value :  7.25510e-06
 Reference value :  7.25587e-06
 Reference value :  7.25683e-06
 Reference value :  7.25773e-06
 Reference value :  7.25888e-06
 Reference value :  7.26106e-06
 Reference value :  7.26337e-06
 Reference value :  7.26664e-06
 Reference value :  7.27088e-06
 Reference value :  7.27847e-06
 Reference value :  7.29365e-06
 Reference value :  7.32401e-06
 Reference value :  7.38474e-06
 Reference value :  7.50000e-06
 Reference value :  7.50001e-06
 Reference value :  7.50003e-06
 Reference value :  7.50007e-06
 Reference value :  7.50010e-06
 Reference value :  7.50010e-06
 Reference value :  7.50011e-06
 Reference value :  7.50013e-06
 Reference value :  7.50017e-06
 Reference value :  7.50023e-06
 Reference value :  7.50037e-06
 Reference value :  7.50057e-06
 Reference value :  7.50093e-06
 Reference value :  7.50151e-06
 Reference value :  7.50205e-06
 Reference value :  7.50268e-06
 Reference value :  7.50339e-06
 Reference value :  7.50421e-06
 Reference value :  7.50502e-06
 Reference value :  7.50597e-06
 Reference value :  7.50696e-06
 Reference value :  7.50812e-06
 Reference value :  7.50932e-06
 Reference value :  7.51056e-06
 Reference value :  7.51183e-06
 Reference value :  7.51348e-06
 Reference value :  7.51491e-06
 Reference value :  7.51644e-06
 Reference value :  7.51808e-06
 Reference value :  7.51994e-06
 Reference value :  7.52334e-06
 Reference value :  7.52830e-06
 Reference value :  7.53822e-06
 Reference value :  7.55712e-06
 Reference value :  7.59362e-06
 Reference value :  7.66661e-06
 Reference value :  7.75010e-06
 Reference value :  7.75011e-06
 Reference value :  7.75013e-06
 Reference value :  7.75017e-06
 Reference value :  7.75020e-06
 Reference value :  7.75020e-06
 Reference value :  7.75020e-06
 Reference value :  7.75021e-06
 Reference value :  7.75021e-06
 Reference value :  7.75022e-06
 Reference value :  7.75025e-06
 Reference value :  7.75029e-06
 Reference value :  7.75039e-06
 Reference value :  7.75057e-06
 Reference value :  7.75091e-06
 Reference value :  7.75157e-06
 Reference value :  7.75217e-06
 Reference value :  7.75281e-06
 Reference value :  7.75352e-06
 Reference value :  7.75442e-06
 Reference value :  7.75512e-06
 Reference value :  7.75592e-06
 Reference value :  7.75663e-06
 Reference value :  7.75741e-06
 Reference value :  7.75844e-06
 Reference value :  7.75954e-06
 Reference value :  7.76058e-06
 Reference value :  7.76239e-06
 Reference value :  7.76402e-06
 Reference value :  7.76705e-06
 Reference value :  7.77018e-06
 Reference value :  7.77493e-06
 Reference value :  7.78286e-06
 Reference value :  7.79331e-06
 Reference value :  7.81093e-06
 Reference value :  7.84359e-06
 Reference value :  7.89595e-06
 Reference value :  7.99113e-06
 Reference value :  8.00000e-06
 Reference value :  8.00001e-06
 Reference value :  8.00003e-06
 Reference value :  8.00007e-06
 Reference value :  8.00010e-06
 Reference value :  8.00010e-06
 Reference value :  8.00011e-06
 Reference value :  8.00013e-06
 Reference value :  8.00016e-06
 Reference value :  8.00023e-06
 Reference value :  8.00037e-06
 Reference value :  8.00056e-06
 Reference value :  8.00092e-06
 Reference value :  8.00145e-06
 Reference value :  8.00199e-06
 Reference value :  8.00265e-06
 Reference value :  8.00340e-06
 Reference value :  8.00418e-06
 Reference value :  8.00503e-06
 Reference value :  8.00577e-06
 Reference value :  8.00653e-06
 Reference value :  8.00725e-06
 Reference value :  8.00806e-06
 Reference value :  8.00898e-06
 Reference value :  8.01003e-06
 Reference value :  8.01150e-06
 Reference value :  8.01348e-06
 Reference value :  8.01497e-06
 Reference value :  8.01659e-06
 Reference value :  8.01819e-06
 Reference value :  8.02000e-06
 Reference value :  8.02174e-06
 Reference value :  8.02393e-06
 Reference value :  8.02618e-06
 Reference value :  8.02898e-06
 Reference value :  8.03161e-06
 Reference value :  8.03640e-06
 Reference value :  8.04322e-06
 Reference value :  8.05614e-06
 Reference value :  8.07041e-06
 Reference value :  8.09541e-06
 Reference value :  8.12048e-06
 Reference value :  8.15081e-06
 Reference value :  8.17120e-06
 Reference value :  8.19012e-06
 Reference value :  8.21716e-06
 Reference value :  8.24405e-06
 Reference value :  8.25010e-06
 Reference value :  8.25011e-06
 Reference value :  8.25013e-06
 Reference value :  8.25017e-06
 Reference value :  8.25020e-06
 Reference value :  8.25020e-06
 Reference value :  8.25020e-06
 Reference value :  8.25021e-06
 Reference value :  8.25021e-06
 Reference value :  8.25022e-06
 Reference value :  8.25025e-06
 Reference value :  8.25029e-06
 Reference value :  8.25039e-06
 Reference value :  8.25058e-06
 Reference value :  8.25096e-06
 Reference value :  8.25160e-06
 Reference value :  8.25224e-06
 Reference value :  8.25290e-06
 Reference value :  8.25360e-06
 Reference value :  8.25448e-06
 Reference value :  8.25545e-06
 Reference value :  8.25667e-06
 Reference value :  8.25801e-06
 Reference value :  8.25945e-06
 Reference value :  8.26194e-06
 Reference value :  8.26451e-06
 Reference value :  8.26850e-06
 Reference value :  8.27329e-06
 Reference value :  8.28286e-06
 Reference value :  8.30201e-06
 Reference value :  8.34030e-06
 Reference value :  8.41689e-06
 Reference value :  8.50000e-06
 Reference value :  8.50000e-06
 Reference value :  8.50000e-06
 Reference value :  8.50000e-06
 Reference value :  8.50000e-06
 Reference value :  8.50000e-06
 Reference value :  8.50000e-06
 Reference value :  8.50000e-06
 Reference value :  8.50000e-06
 Reference value :  8.50001e-06
 Reference value :  8.50001e-06
 Reference value :  8.50002e-06
 Reference value :  8.50004e-06
 Reference value :  8.50008e-06
 Reference value :  8.50010e-06
 Reference value :  8.50010e-06
 Reference value :  8.50011e-06
 Reference value :  8.50012e-06
 Reference value :  8.50014e-06
 Reference value :  8.50018e-06
 Reference value :  8.50026e-06
 Reference value :  8.50042e-06
 Reference value :  8.50074e-06
 Reference value :  8.50127e-06
 Reference value :  8.50184e-06
 Reference value :  8.50268e-06
 Reference value :  8.50347e-06
 Reference value :  8.50424e-06
 Reference value :  8.50514e-06
 Reference value :  8.50596e-06
 Reference value :  8.50716e-06
 Reference value :  8.50871e-06
 Reference value :  8.51039e-06
 Reference value :  8.51199e-06
 Reference value :  8.51370e-06
 Reference value :  8.51558e-06
 Reference value :  8.51860e-06
 Reference value :  8.52180e-06
 Reference value :  8.52820e-06
 Reference value :  8.53473e-06
 Reference value :  8.53930e-06
 Reference value :  8.54311e-06
 Reference value :  8.54628e-06
 Reference value :  8.54942e-06
 Reference value :  8.55167e-06
 Reference value :  8.55366e-06
 Reference value :  8.55561e-06
 Reference value :  8.55797e-06
 Reference value :  8.56022e-06
 Reference value :  8.56197e-06
 Reference value :  8.56388e-06
 Reference value :  8.56646e-06
 Reference value :  8.56952e-06
 Reference value :  8.57327e-06
 Reference value :  8.57744e-06
 Reference value :  8.58297e-06
 Reference value :  8.58906e-06
 Reference value :  8.59667e-06
 Reference value :  8.60721e-06
 Reference value :  8.61793e-06
 Reference value :  8.63364e-06
 Reference value :  8.65131e-06
 Reference value :  8.66642e-06
 Reference value :  8.67794e-06
 Reference value :  8.68668e-06
 Reference value :  8.69233e-06
 Reference value :  8.69750e-06
 Reference value :  8.70226e-06
 Reference value :  8.70718e-06
 Reference value :  8.71452e-06
 Reference value :  8.72144e-06
 Reference value :  8.72966e-06
 Reference value :  8.73783e-06
 Reference value :  8.75010e-06
 Reference value :  8.75011e-06
 Reference value :  8.75013e-06
 Reference value :  8.75017e-06
 Reference value :  8.75020e-06
 Reference value :  8.75020e-06
 Reference value :  8.75020e-06
 Reference value :  8.75021e-06
 Reference value :  8.75021e-06
 Reference value :  8.75022e-06
 Reference value :  8.75025e-06
 Reference value :  8.75029e-06
 Reference value :  8.75039e-06
 Reference value :  8.75058e-06
 Reference value :  8.75096e-06
 Reference value :  8.75163e-06
 Reference value :  8.75224e-06
 Reference value :  8.75291e-06
 Reference value :  8.75360e-06
 Reference value :  8.75449e-06
 Reference value :  8.75517e-06
 Reference value :  8.75594e-06
 Reference value :  8.75689e-06
 Reference value :  8.75780e-06
 Reference value :  8.75894e-06
 Reference value :  8.76122e-06
 Reference value :  8.76360e-06
 Reference value :  8.76695e-06
 Reference value :  8.77127e-06
 Reference value :  8.77958e-06
 Reference value :  8.79620e-06
 Reference value :  8.82589e-06
 Reference value :  8.88527e-06
 Reference value :  9.00000e-06
 Reference value :  9.00001e-06
 Reference value :  9.00003e-06
 Reference value :  9.00007e-06
 Reference value :  9.00010e-06
 Reference value :  9.00010e-06
 Reference value :  9.00011e-06
 Reference value :  9.00013e-06
 Reference value :  9.00017e-06
 Reference value :  9.00023e-06
 Reference value :  9.00037e-06
 Reference value :  9.00058e-06
 Reference value :  9.00096e-06
 Reference value :  9.00154e-06
 Reference value :  9.00211e-06
 Reference value :  9.00277e-06
 Reference value :  9.00349e-06
 Reference value :  9.00427e-06
 Reference value :  9.00510e-06
 Reference value :  9.00590e-06
 Reference value :  9.00701e-06
 Reference value :  9.00804e-06
 Reference value :  9.00996e-06
 Reference value :  9.01209e-06
 Reference value :  9.01443e-06
 Reference value :  9.01672e-06
 Reference value :  9.01891e-06
 Reference value :  9.02168e-06
 Reference value :  9.02428e-06
 Reference value :  9.02942e-06
 Reference value :  9.03630e-06
 Reference value :  9.04797e-06
 Reference value :  9.06877e-06
 Reference value :  9.10148e-06
 Reference value :  9.16081e-06
 Reference value :  9.25010e-06
 Reference value :  9.25011e-06
 Reference value :  9.25013e-06
 Reference value :  9.25017e-06
 Reference value :  9.25020e-06
 Reference value :  9.25020e-06
 Reference value :  9.25020e-06
 Reference value :  9.25021e-06
 Reference value :  9.25021e-06
 Reference value :  9.25022e-06
 Reference value :  9.25025e-06
 Reference value :  9.25029e-06
 Reference value :  9.25039e-06
 Reference value :  9.25058e-06
 Reference value :  9.25096e-06
 Reference value :  9.25157e-06
 Reference value :  9.25219e-06
 Reference value :  9.25284e-06
 Reference value :  9.25354e-06
 Reference value :  9.25445e-06
 Reference value :  9.25517e-06
 Reference value :  9.25600e-06
 Reference value :  9.25673e-06
 Reference value :  9.25752e-06
 Reference value :  9.25856e-06
 Reference value :  9.25965e-06
 Reference value :  9.26067e-06
 Reference value :  9.26209e-06
 Reference value :  9.26357e-06
 Reference value :  9.26605e-06
 Reference value :  9.26900e-06
 Reference value :  9.27314e-06
 Reference value :  9.27952e-06
 Reference value :  9.28824e-06
 Reference value :  9.30163e-06
 Reference value :  9.32107e-06
 Reference value :  9.34991e-06
 Reference value :  9.40030e-06
 Reference value :  9.49557e-06
 Reference value :  9.50000e-06
 Reference value :  9.50001e-06
 Reference value :  9.50003e-06
 Reference value :  9.50007e-06
 Reference value :  9.50010e-06
 Reference value :  9.50010e-06
 Reference value :  9.50011e-06
 Reference value :  9.50013e-06
 Reference value :  9.50017e-06
 Reference value :  9.50023e-06
 Reference value :  9.50037e-06
 Reference value :  9.50058e-06
 Reference value :  9.50096e-06
 Reference value :  9.50154e-06
 Reference value :  9.50210e-06
 Reference value :  9.50277e-06
 Reference value :  9.50354e-06
 Reference value :  9.50442e-06
 Reference value :  9.50527e-06
 Reference value :  9.50613e-06
 Reference value :  9.50689e-06
 Reference value :  9.50763e-06
 Reference value :  9.50847e-06
 Reference value :  9.50942e-06
 Reference value :  9.51058e-06
 Reference value :  9.51247e-06
 Reference value :  9.51485e-06
 Reference value :  9.51655e-06
 Reference value :  9.51844e-06
 Reference value :  9.52038e-06
 Reference value :  9.52198e-06
 Reference value :  9.52322e-06
 Reference value :  9.52441e-06
 Reference value :  9.52556e-06
 Reference value :  9.52681e-06
 Reference value :  9.52836e-06
 Reference value :  9.53017e-06
 Reference value :  9.53282e-06
 Reference value :  9.53609e-06
 Reference value :  9.54262e-06
 Reference value :  9.55478e-06
 Reference value :  9.57470e-06
 Reference value :  9.60670e-06
 Reference value :  9.66612e-06
 Reference value :  9.73493e-06
 Reference value :  9.75010e-06
 Reference value :  9.75011e-06
 Reference value :  9.75013e-06
 Reference value :  9.75017e-06
 Reference value :  9.75020e-06
 Reference value :  9.75020e-06
 Reference value :  9.75020e-06
 Reference value :  9.75021e-06
 Reference value :  9.75021e-06
 Reference value :  9.75022e-06
 Reference value :  9.75025e-06
 Reference value :  9.75029e-06
 Reference value :  9.75039e-06
 Reference value :  9.75058e-06
 Reference value :  9.75091e-06
 Reference value :  9.75156e-06
 Reference value :  9.75215e-06
 Reference value :  9.75279e-06
 Reference value :  9.75350e-06
 Reference value :  9.75439e-06
 Reference value :  9.75513e-06
 Reference value :  9.75596e-06
 Reference value :  9.75682e-06
 Reference value :  9.75771e-06
 Reference value :  9.75889e-06
 Reference value :  9.76074e-06
 Reference value :  9.76320e-06
 Reference value :  9.76624e-06
 Reference value :  9.77056e-06
 Reference value :  9.77714e-06
 Reference value :  9.79030e-06
 Reference value :  9.81662e-06
 Reference value :  9.86926e-06
 Reference value :  9.97454e-06
 Reference value :  1.00000e-05
 Reference value :  1.00000e-05
 Reference value :  1.00000e-05
 Reference value :  1.00001e-05
 Reference value :  1.00001e-05
 Reference value :  1.00001e-05
 Reference value :  1.00001e-05
 Reference value :  1.00001e-05
 Reference value :  1.00002e-05
 Reference value :  1.00002e-05
 Reference value :  1.00004e-05
 Reference value :  1.00006e-05
 Reference value :  1.00009e-05
 Reference value :  1.00014e-05
 Reference value :  1.00020e-05
 Reference value :  1.00026e-05
 Reference value :  1.00033e-05
 Reference value :  1.00040e-05
 Reference value :  1.00050e-05
 Reference value :  1.00059e-05
 Reference value :  1.00068e-05
 Reference value :  1.00081e-05
 Reference value :  1.00094e-05
 Reference value :  1.00107e-05
 Reference value :  1.00120e-05
 Reference value :  1.00137e-05
 Reference value :  1.00151e-05
 Reference value :  1.00166e-05
 Reference value :  1.00182e-05
 Reference value :  1.00200e-05
 Reference value :  1.00236e-05
 Reference value :  1.00293e-05
 Reference value :  1.00397e-05
 Reference value :  1.00601e-05
 Reference value :  1.01009e-05
 Reference value :  1.01826e-05
 Reference value :  1.02501e-05
 Reference value :  1.02501e-05
 Reference value :  1.02501e-05
 Reference value :  1.02502e-05
 Reference value :  1.02502e-05
 Reference value :  1.02502e-05
 Reference value :  1.02502e-05
 Reference value :  1.02502e-05
 Reference value :  1.02502e-05
 Reference value :  1.02502e-05
 Reference value :  1.02502e-05
 Reference value :  1.02503e-05
 Reference value :  1.02504e-05
 Reference value :  1.02506e-05
 Reference value :  1.02509e-05
 Reference value :  1.02516e-05
 Reference value :  1.02521e-05
 Reference value :  1.02528e-05
 Reference value :  1.02535e-05
 Reference value :  1.02544e-05
 Reference value :  1.02551e-05
 Reference value :  1.02560e-05
 Reference value :  1.02567e-05
 Reference value :  1.02575e-05
 Reference value :  1.02586e-05
 Reference value :  1.02597e-05
 Reference value :  1.02608e-05
 Reference value :  1.02625e-05
 Reference value :  1.02646e-05
 Reference value :  1.02672e-05
 Reference value :  1.02708e-05
 Reference value :  1.02753e-05
 Reference value :  1.02844e-05
 Reference value :  1.02984e-05
 Reference value :  1.03266e-05
 Reference value :  1.03828e-05
 Reference value :  1.04953e-05
 Reference value :  1.05000e-05
 Reference value :  1.05000e-05
 Reference value :  1.05000e-05
 Reference value :  1.05001e-05
 Reference value :  1.05001e-05
 Reference value :  1.05001e-05
 Reference value :  1.05001e-05
 Reference value :  1.05001e-05
 Reference value :  1.05002e-05
 Reference value :  1.05002e-05
 Reference value :  1.05004e-05
 Reference value :  1.05006e-05
 Reference value :  1.05009e-05
 Reference value :  1.05014e-05
 Reference value :  1.05020e-05
 Reference value :  1.05026e-05
 Reference value :  1.05034e-05
 Reference value :  1.05041e-05
 Reference value :  1.05050e-05
 Reference value :  1.05057e-05
 Reference value :  1.05065e-05
 Reference value :  1.05072e-05
 Reference value :  1.05080e-05
 Reference value :  1.05088e-05
 Reference value :  1.05099e-05
 Reference value :  1.05111e-05
 Reference value :  1.05131e-05
 Reference value :  1.05160e-05
 Reference value :  1.05179e-05
 Reference value :  1.05200e-05
 Reference value :  1.05220e-05
 Reference value :  1.05234e-05
 Reference value :  1.05248e-05
 Reference value :  1.05260e-05
 Reference value :  1.05274e-05
 Reference value :  1.05290e-05
 Reference value :  1.05310e-05
 Reference value :  1.05338e-05
 Reference value :  1.05372e-05
 Reference value :  1.05440e-05
 Reference value :  1.05544e-05
 Reference value :  1.05690e-05
 Reference value :  1.05939e-05
 Reference value :  1.06282e-05
 Reference value :  1.06661e-05
 Reference value :  1.07115e-05
 Reference value :  1.07501e-05
 Reference value :  1.07501e-05
 Reference value :  1.07501e-05
 Reference value :  1.07502e-05
 Reference value :  1.07502e-05
 Reference value :  1.07502e-05
 Reference value :  1.07502e-05
 Reference value :  1.07502e-05
 Reference value :  1.07502e-05
 Reference value :  1.07502e-05
 Reference value :  1.07502e-05
 Reference value :  1.07503e-05
 Reference value :  1.07504e-05
 Reference value :  1.07506e-05
 Reference value :  1.07509e-05
 Reference value :  1.07515e-05
 Reference value :  1.07521e-05
 Reference value :  1.07528e-05
 Reference value :  1.07535e-05
 Reference value :  1.07544e-05
 Reference value :  1.07551e-05
 Reference value :  1.07560e-05
 Reference value :  1.07568e-05
 Reference value :  1.07577e-05
 Reference value :  1.07589e-05
 Reference value :  1.07608e-05
 Reference value :  1.07632e-05
 Reference value :  1.07663e-05
 Reference value :  1.07706e-05
 Reference value :  1.07774e-05
 Reference value :  1.07909e-05
 Reference value :  1.08177e-05
 Reference value :  1.08631e-05
 Reference value :  1.09106e-05
 Reference value :  1.09648e-05
 Reference value :  1.10000e-05
 Reference value :  1.10000e-05
 Reference value :  1.10000e-05
 Reference value :  1.10001e-05
 Reference value :  1.10001e-05
 Reference value :  1.10001e-05
 Reference value :  1.10001e-05
 Reference value :  1.10001e-05
 Reference value :  1.10002e-05
 Reference value :  1.10002e-05
 Reference value :  1.10004e-05
 Reference value :  1.10006e-05
 Reference value :  1.10009e-05
 Reference value :  1.10014e-05
 Reference value :  1.10020e-05
 Reference value :  1.10026e-05
 Reference value :  1.10033e-05
 Reference value :  1.10041e-05
 Reference value :  1.10050e-05
 Reference value :  1.10059e-05
 Reference value :  1.10069e-05
 Reference value :  1.10081e-05
 Reference value :  1.10093e-05
 Reference value :  1.10106e-05
 Reference value :  1.10120e-05
 Reference value :  1.10136e-05
 Reference value :  1.10149e-05
 Reference value :  1.10165e-05
 Reference value :  1.10180e-05
 Reference value :  1.10198e-05
 Reference value :  1.10233e-05
 Reference value :  1.10292e-05
 Reference value :  1.10397e-05
 Reference value :  1.10606e-05
 Reference value :  1.11024e-05
 Reference value :  1.11860e-05
 Reference value :  1.12501e-05
 Reference value :  1.12501e-05
 Reference value :  1.12501e-05
 Reference value :  1.12502e-05
 Reference value :  1.12502e-05
 Reference value :  1.12502e-05
 Reference value :  1.12502e-05
 Reference value :  1.12502e-05
 Reference value :  1.12502e-05
 Reference value :  1.12502e-05
 Reference value :  1.12502e-05
 Reference value :  1.12503e-05
 Reference value :  1.12504e-05
 Reference value :  1.12506e-05
 Reference value :  1.12509e-05
 Reference value :  1.12516e-05
 Reference value :  1.12522e-05
 Reference value :  1.12528e-05
 Reference value :  1.12535e-05
 Reference value :  1.12544e-05
 Reference value :  1.12551e-05
 Reference value :  1.12560e-05
 Reference value :  1.12567e-05
 Reference value :  1.12575e-05
 Reference value :  1.12585e-05
 Reference value :  1.12596e-05
 Reference value :  1.12608e-05
 Reference value :  1.12625e-05
 Reference value :  1.12645e-05
 Reference value :  1.12672e-05
 Reference value :  1.12707e-05
 Reference value :  1.12753e-05
 Reference value :  1.12844e-05
 Reference value :  1.12977e-05
 Reference value :  1.13242e-05
 Reference value :  1.13772e-05
 Reference value :  1.14832e-05
 Reference value :  1.15000e-05
 Reference value :  1.15000e-05
 Reference value :  1.15000e-05
 Reference value :  1.15001e-05
 Reference value :  1.15001e-05
 Reference value :  1.15001e-05
 Reference value :  1.15001e-05
 Reference value :  1.15001e-05
 Reference value :  1.15002e-05
 Reference value :  1.15002e-05
 Reference value :  1.15004e-05
 Reference value :  1.15006e-05
 Reference value :  1.15009e-05
 Reference value :  1.15014e-05
 Reference value :  1.15020e-05
 Reference value :  1.15026e-05
 Reference value :  1.15034e-05
 Reference value :  1.15041e-05
 Reference value :  1.15050e-05
 Reference value :  1.15057e-05
 Reference value :  1.15065e-05
 Reference value :  1.15072e-05
 Reference value :  1.15081e-05
 Reference value :  1.15089e-05
 Reference value :  1.15099e-05
 Reference value :  1.15111e-05
 Reference value :  1.15130e-05
 Reference value :  1.15149e-05
 Reference value :  1.15166e-05
 Reference value :  1.15183e-05
 Reference value :  1.15202e-05
 Reference value :  1.15217e-05
 Reference value :  1.15232e-05
 Reference value :  1.15251e-05
 Reference value :  1.15268e-05
 Reference value :  1.15284e-05
 Reference value :  1.15304e-05
 Reference value :  1.15331e-05
 Reference value :  1.15359e-05
 Reference value :  1.15408e-05
 Reference value :  1.15459e-05
 Reference value :  1.15523e-05
 Reference value :  1.15564e-05
 Reference value :  1.15609e-05
 Reference value :  1.15651e-05
 Reference value :  1.15725e-05
 Reference value :  1.15814e-05
 Reference value :  1.15947e-05
 Reference value :  1.16147e-05
 Reference value :  1.16360e-05
 Reference value :  1.16617e-05
 Reference value :  1.16932e-05
 Reference value :  1.17260e-05
 Reference value :  1.17501e-05
 Reference value :  1.17501e-05
 Reference value :  1.17501e-05
 Reference value :  1.17502e-05
 Reference value :  1.17502e-05
 Reference value :  1.17502e-05
 Reference value :  1.17502e-05
 Reference value :  1.17502e-05
 Reference value :  1.17502e-05
 Reference value :  1.17502e-05
 Reference value :  1.17502e-05
 Reference value :  1.17503e-05
 Reference value :  1.17504e-05
 Reference value :  1.17506e-05
 Reference value :  1.17509e-05
 Reference value :  1.17516e-05
 Reference value :  1.17522e-05
 Reference value :  1.17528e-05
 Reference value :  1.17535e-05
 Reference value :  1.17544e-05
 Reference value :  1.17551e-05
 Reference value :  1.17560e-05
 Reference value :  1.17568e-05
 Reference value :  1.17577e-05
 Reference value :  1.17589e-05
 Reference value :  1.17607e-05
 Reference value :  1.17632e-05
 Reference value :  1.17662e-05
 Reference value :  1.17705e-05
 Reference value :  1.17770e-05
 Reference value :  1.17899e-05
 Reference value :  1.18158e-05
 Reference value :  1.18675e-05
 Reference value :  1.19710e-05
 Reference value :  1.20000e-05
 Reference value :  1.20000e-05
 Reference value :  1.20000e-05
 Reference value :  1.20001e-05
 Reference value :  1.20001e-05
 Reference value :  1.20001e-05
 Reference value :  1.20001e-05
 Reference value :  1.20001e-05
 Reference value :  1.20002e-05
 Reference value :  1.20002e-05
 Reference value :  1.20004e-05
 Reference value :  1.20006e-05
 Reference value :  1.20009e-05
 Reference value :  1.20014e-05
 Reference value :  1.20020e-05
 Reference value :  1.20026e-05
 Reference value :  1.20034e-05
 Reference value :  1.20041e-05
 Reference value :  1.20049e-05
 Reference value :  1.20058e-05
 Reference value :  1.20067e-05
 Reference value :  1.20078e-05
 Reference value :  1.20092e-05
 Reference value :  1.20104e-05
 Reference value :  1.20116e-05
 Reference value :  1.20135e-05
 Reference value :  1.20149e-05
 Reference value :  1.20165e-05
 Reference value :  1.20181e-05
 Reference value :  1.20200e-05
 Reference value :  1.20235e-05
 Reference value :  1.20285e-05
 Reference value :  1.20386e-05
 Reference value :  1.20587e-05
 Reference value :  1.20987e-05
 Reference value :  1.21787e-05
 Reference value :  1.22501e-05
 Reference value :  1.22501e-05
 Reference value :  1.22501e-05
 Reference value :  1.22502e-05
 Reference value :  1.22502e-05
 Reference value :  1.22502e-05
 Reference value :  1.22502e-05
 Reference value :  1.22502e-05
 Reference value :  1.22502e-05
 Reference value :  1.22502e-05
 Reference value :  1.22502e-05
 Reference value :  1.22503e-05
 Reference value :  1.22504e-05
 Reference value :  1.22506e-05
 Reference value :  1.22509e-05
 Reference value :  1.22516e-05
 Reference value :  1.22522e-05
 Reference value :  1.22528e-05
 Reference value :  1.22535e-05
 Reference value :  1.22544e-05
 Reference value :  1.22551e-05
 Reference value :  1.22560e-05
 Reference value :  1.22567e-05
 Reference value :  1.22575e-05
 Reference value :  1.22585e-05
 Reference value :  1.22596e-05
 Reference value :  1.22618e-05
 Reference value :  1.22641e-05
 Reference value :  1.22682e-05
 Reference value :  1.22725e-05
 Reference value :  1.22812e-05
 Reference value :  1.22986e-05
 Reference value :  1.23334e-05
 Reference value :  1.24030e-05
 Reference value :  1.25000e-05
 Reference value :  1.25000e-05
 Reference value :  1.25000e-05
 Reference value :  1.25001e-05
 Reference value :  1.25001e-05
 Reference value :  1.25001e-05
 Reference value :  1.25001e-05
 Reference value :  1.25001e-05
 Reference value :  1.25002e-05
 Reference value :  1.25002e-05
 Reference value :  1.25004e-05
 Reference value :  1.25006e-05
 Reference value :  1.25009e-05
 Reference value :  1.25014e-05
 Reference value :  1.25020e-05
 Reference value :  1.25026e-05
 Reference value :  1.25034e-05
 Reference value :  1.25041e-05
 Reference value :  1.25050e-05
 Reference value :  1.25057e-05
 Reference value :  1.25065e-05
 Reference value :  1.25074e-05
 Reference value :  1.25084e-05
 Reference value :  1.25093e-05
 Reference value :  1.25106e-05
 Reference value :  1.25122e-05
 Reference value :  1.25146e-05
 Reference value :  1.25179e-05
 Reference value :  1.25203e-05
 Reference value :  1.25223e-05
 Reference value :  1.25242e-05
 Reference value :  1.25261e-05
 Reference value :  1.25279e-05
 Reference value :  1.25302e-05
 Reference value :  1.25323e-05
 Reference value :  1.25354e-05
 Reference value :  1.25387e-05
 Reference value :  1.25440e-05
 Reference value :  1.25515e-05
 Reference value :  1.25629e-05
 Reference value :  1.25814e-05
 Reference value :  1.26035e-05
 Reference value :  1.26277e-05
 Reference value :  1.26551e-05
 Reference value :  1.26960e-05
 Reference value :  1.27456e-05
 Reference value :  1.27501e-05
 Reference value :  1.27501e-05
 Reference value :  1.27501e-05
 Reference value :  1.27502e-05
 Reference value :  1.27502e-05
 Reference value :  1.27502e-05
 Reference value :  1.27502e-05
 Reference value :  1.27502e-05
 Reference value :  1.27502e-05
 Reference value :  1.27502e-05
 Reference value :  1.27502e-05
 Reference value :  1.27503e-05
 Reference value :  1.27504e-05
 Reference value :  1.27506e-05
 Reference value :  1.27509e-05
 Reference value :  1.27516e-05
 Reference value :  1.27522e-05
 Reference value :  1.27528e-05
 Reference value :  1.27535e-05
 Reference value :  1.27544e-05
 Reference value :  1.27552e-05
 Reference value :  1.27560e-05
 Reference value :  1.27569e-05
 Reference value :  1.27578e-05
 Reference value :  1.27590e-05
 Reference value :  1.27608e-05
 Reference value :  1.27633e-05
 Reference value :  1.27664e-05
 Reference value :  1.27707e-05
 Reference value :  1.27775e-05
 Reference value :  1.27911e-05
 Reference value :  1.28172e-05
 Reference value :  1.28695e-05
 Reference value :  1.29741e-05
 Reference value :  1.30000e-05
 Reference value :  1.30000e-05
 Reference value :  1.30000e-05
 Reference value :  1.30001e-05
 Reference value :  1.30001e-05
 Reference value :  1.30001e-05
 Reference value :  1.30001e-05
 Reference value :  1.30001e-05
 Reference value :  1.30002e-05
 Reference value :  1.30002e-05
 Reference value :  1.30004e-05
 Reference value :  1.30006e-05
 Reference value :  1.30009e-05
 Reference value :  1.30014e-05
 Reference value :  1.30020e-05
 Reference value :  1.30026e-05
 Reference value :  1.30034e-05
 Reference value :  1.30041e-05
 Reference value :  1.30049e-05
 Reference value :  1.30058e-05
 Reference value :  1.30068e-05
 Reference value :  1.30079e-05
 Reference value :  1.30091e-05
 Reference value :  1.30102e-05
 Reference value :  1.30114e-05
 Reference value :  1.30131e-05
 Reference value :  1.30145e-05
 Reference value :  1.30160e-05
 Reference value :  1.30175e-05
 Reference value :  1.30193e-05
 Reference value :  1.30227e-05
 Reference value :  1.30278e-05
 Reference value :  1.30378e-05
 Reference value :  1.30579e-05
 Reference value :  1.30980e-05
 Reference value :  1.31783e-05
 Reference value :  1.32501e-05
 Reference value :  1.32501e-05
 Reference value :  1.32501e-05
 Reference value :  1.32502e-05
 Reference value :  1.32502e-05
 Reference value :  1.32502e-05
 Reference value :  1.32502e-05
 Reference value :  1.32502e-05
 Reference value :  1.32502e-05
 Reference value :  1.32502e-05
 Reference value :  1.32502e-05
 Reference value :  1.32503e-05
 Reference value :  1.32504e-05
 Reference value :  1.32506e-05
 Reference value :  1.32509e-05
 Reference value :  1.32515e-05
 Reference value :  1.32521e-05
 Reference value :  1.32528e-05
 Reference value :  1.32535e-05
 Reference value :  1.32544e-05
 Reference value :  1.32551e-05
 Reference value :  1.32560e-05
 Reference value :  1.32567e-05
 Reference value :  1.32575e-05
 Reference value :  1.32585e-05
 Reference value :  1.32596e-05
 Reference value :  1.32619e-05
 Reference value :  1.32642e-05
 Reference value :  1.32683e-05
 Reference value :  1.32726e-05
 Reference value :  1.32814e-05
 Reference value :  1.32989e-05
 Reference value :  1.33339e-05
 Reference value :  1.34039e-05
 Reference value :  1.35000e-05
 Reference value :  1.35000e-05
 Reference value :  1.35000e-05
 Reference value :  1.35001e-05
 Reference value :  1.35001e-05
 Reference value :  1.35001e-05
 Reference value :  1.35001e-05
 Reference value :  1.35001e-05
 Reference value :  1.35002e-05
 Reference value :  1.35002e-05
 Reference value :  1.35004e-05
 Reference value :  1.35006e-05
 Reference value :  1.35009e-05
 Reference value :  1.35014e-05
 Reference value :  1.35020e-05
 Reference value :  1.35026e-05
 Reference value :  1.35034e-05
 Reference value :  1.35041e-05
 Reference value :  1.35050e-05
 Reference value :  1.35057e-05
 Reference value :  1.35065e-05
 Reference value :  1.35073e-05
 Reference value :  1.35083e-05
 Reference value :  1.35092e-05
 Reference value :  1.35105e-05
 Reference value :  1.35121e-05
 Reference value :  1.35144e-05
 Reference value :  1.35178e-05
 Reference value :  1.35202e-05
 Reference value :  1.35223e-05
 Reference value :  1.35242e-05
 Reference value :  1.35262e-05
 Reference value :  1.35281e-05
 Reference value :  1.35303e-05
 Reference value :  1.35325e-05
 Reference value :  1.35354e-05
 Reference value :  1.35388e-05
 Reference value :  1.35440e-05
 Reference value :  1.35513e-05
 Reference value :  1.35622e-05
 Reference value :  1.35759e-05
 Reference value :  1.35903e-05
 Reference value :  1.36101e-05
 Reference value :  1.36368e-05
 Reference value :  1.36782e-05
 Reference value :  1.37501e-05
 Reference value :  1.37501e-05
 Reference value :  1.37501e-05
 Reference value :  1.37502e-05
 Reference value :  1.37502e-05
 Reference value :  1.37502e-05
 Reference value :  1.37502e-05
 Reference value :  1.37502e-05
 Reference value :  1.37502e-05
 Reference value :  1.37502e-05
 Reference value :  1.37502e-05
 Reference value :  1.37503e-05
 Reference value :  1.37504e-05
 Reference value :  1.37506e-05
 Reference value :  1.37509e-05
 Reference value :  1.37516e-05
 Reference value :  1.37522e-05
 Reference value :  1.37528e-05
 Reference value :  1.37535e-05
 Reference value :  1.37544e-05
 Reference value :  1.37552e-05
 Reference value :  1.37560e-05
 Reference value :  1.37568e-05
 Reference value :  1.37577e-05
 Reference value :  1.37589e-05
 Reference value :  1.37608e-05
 Reference value :  1.37632e-05
 Reference value :  1.37663e-05
 Reference value :  1.37706e-05
 Reference value :  1.37773e-05
 Reference value :  1.37907e-05
 Reference value :  1.38164e-05
 Reference value :  1.38677e-05
 Reference value :  1.39704e-05
 Reference value :  1.40000e-05
 Reference value :  1.40000e-05
 Reference value :  1.40000e-05
 Reference value :  1.40001e-05
 Reference value :  1.40001e-05
 Reference value :  1.40001e-05
 Reference value :  1.40001e-05
 Reference value :  1.40001e-05
 Reference value :  1.40002e-05
 Reference value :  1.40002e-05
 Reference value :  1.40004e-05
 Reference value :  1.40006e-05
 Reference value :  1.40009e-05
 Reference value :  1.40014e-05
 Reference value :  1.40020e-05
 Reference value :  1.40026e-05
 Reference value :  1.40034e-05
 Reference value :  1.40041e-05
 Reference value :  1.40049e-05
 Reference value :  1.40059e-05
 Reference value :  1.40069e-05
 Reference value :  1.40081e-05
 Reference value :  1.40092e-05
 Reference value :  1.40105e-05
 Reference value :  1.40119e-05
 Reference value :  1.40134e-05
 Reference value :  1.40151e-05
 Reference value :  1.40167e-05
 Reference value :  1.40189e-05
 Reference value :  1.40212e-05
 Reference value :  1.40252e-05
 Reference value :  1.40311e-05
 Reference value :  1.40411e-05
 Reference value :  1.40595e-05
 Reference value :  1.40912e-05
 Reference value :  1.41508e-05
 Reference value :  1.42501e-05
 Reference value :  1.42501e-05
 Reference value :  1.42501e-05
 Reference value :  1.42502e-05
 Reference value :  1.42502e-05
 Reference value :  1.42502e-05
 Reference value :  1.42502e-05
 Reference value :  1.42502e-05
 Reference value :  1.42502e-05
 Reference value :  1.42502e-05
 Reference value :  1.42502e-05
 Reference value :  1.42503e-05
 Reference value :  1.42504e-05
 Reference value :  1.42506e-05
 Reference value :  1.42509e-05
 Reference value :  1.42516e-05
 Reference value :  1.42522e-05
 Reference value :  1.42528e-05
 Reference value :  1.42535e-05
 Reference value :  1.42544e-05
 Reference value :  1.42551e-05
 Reference value :  1.42560e-05
 Reference value :  1.42567e-05
 Reference value :  1.42575e-05
 Reference value :  1.42585e-05
 Reference value :  1.42596e-05
 Reference value :  1.42618e-05
 Reference value :  1.42641e-05
 Reference value :  1.42682e-05
 Reference value :  1.42726e-05
 Reference value :  1.42813e-05
 Reference value :  1.42987e-05
 Reference value :  1.43335e-05
 Reference value :  1.44032e-05
 Reference value :  1.45000e-05
 Reference value :  1.45000e-05
 Reference value :  1.45000e-05
 Reference value :  1.45001e-05
 Reference value :  1.45001e-05
 Reference value :  1.45001e-05
 Reference value :  1.45001e-05
 Reference value :  1.45001e-05
 Reference value :  1.45002e-05
 Reference value :  1.45002e-05
 Reference value :  1.45004e-05
 Reference value :  1.45006e-05
 Reference value :  1.45009e-05
 Reference value :  1.45014e-05
 Reference value :  1.45020e-05
 Reference value :  1.45026e-05
 Reference value :  1.45034e-05
 Reference value :  1.45041e-05
 Reference value :  1.45050e-05
 Reference value :  1.45057e-05
 Reference value :  1.45066e-05
 Reference value :  1.45073e-05
 Reference value :  1.45082e-05
 Reference value :  1.45091e-05
 Reference value :  1.45103e-05
 Reference value :  1.45120e-05
 Reference value :  1.45142e-05
 Reference value :  1.45168e-05
 Reference value :  1.45190e-05
 Reference value :  1.45213e-05
 Reference value :  1.45230e-05
 Reference value :  1.45246e-05
 Reference value :  1.45259e-05
 Reference value :  1.45274e-05
 Reference value :  1.45292e-05
 Reference value :  1.45312e-05
 Reference value :  1.45339e-05
 Reference value :  1.45374e-05
 Reference value :  1.45439e-05
 Reference value :  1.45520e-05
 Reference value :  1.45605e-05
 Reference value :  1.45714e-05
 Reference value :  1.45890e-05
 Reference value :  1.46109e-05
 Reference value :  1.46546e-05
 Reference value :  1.47265e-05
 Reference value :  1.47501e-05
 Reference value :  1.47501e-05
 Reference value :  1.47501e-05
 Reference value :  1.47502e-05
 Reference value :  1.47502e-05
 Reference value :  1.47502e-05
 Reference value :  1.47502e-05
 Reference value :  1.47502e-05
 Reference value :  1.47502e-05
 Reference value :  1.47502e-05
 Reference value :  1.47502e-05
 Reference value :  1.47503e-05
 Reference value :  1.47504e-05
 Reference value :  1.47506e-05
 Reference value :  1.47509e-05
 Reference value :  1.47516e-05
 Reference value :  1.47522e-05
 Reference value :  1.47528e-05
 Reference value :  1.47535e-05
 Reference value :  1.47544e-05
 Reference value :  1.47552e-05
 Reference value :  1.47560e-05
 Reference value :  1.47569e-05
 Reference value :  1.47578e-05
 Reference value :  1.47590e-05
 Reference value :  1.47608e-05
 Reference value :  1.47633e-05
 Reference value :  1.47664e-05
 Reference value :  1.47707e-05
 Reference value :  1.47776e-05
 Reference value :  1.47915e-05
 Reference value :  1.48178e-05
 Reference value :  1.48702e-05
 Reference value :  1.49752e-05
 Reference value :  1.50000e-05
 Reference value :  1.50000e-05
 Reference value :  1.50000e-05
 Reference value :  1.50001e-05
 Reference value :  1.50001e-05
 Reference value :  1.50001e-05
 Reference value :  1.50001e-05
 Reference value :  1.50001e-05
 Reference value :  1.50002e-05
 Reference value :  1.50002e-05
 Reference value :  1.50004e-05
 Reference value :  1.50006e-05
 Reference value :  1.50009e-05
 Reference value :  1.50014e-05
 Reference value :  1.50020e-05
 Reference value :  1.50026e-05
 Reference value :  1.50034e-05
 Reference value :  1.50041e-05
 Reference value :  1.50049e-05
 Reference value :  1.50058e-05
 Reference value :  1.50067e-05
 Reference value :  1.50078e-05
 Reference value :  1.50092e-05
 Reference value :  1.50104e-05
 Reference value :  1.50117e-05
 Reference value :  1.50135e-05
 Reference value :  1.50152e-05
 Reference value :  1.50169e-05
 Reference value :  1.50189e-05
 Reference value :  1.50210e-05
 Reference value :  1.50246e-05
 Reference value :  1.50299e-05
 Reference value :  1.50390e-05
 Reference value :  1.50553e-05
 Reference value :  1.50842e-05
 Reference value :  1.51386e-05
 Reference value :  1.52384e-05
 Reference value :  1.52501e-05
 Reference value :  1.52501e-05
 Reference value :  1.52501e-05
 Reference value :  1.52502e-05
 Reference value :  1.52502e-05
 Reference value :  1.52502e-05
 Reference value :  1.52502e-05
 Reference value :  1.52502e-05
 Reference value :  1.52502e-05
 Reference value :  1.52502e-05
 Reference value :  1.52502e-05
 Reference value :  1.52503e-05
 Reference value :  1.52504e-05
 Reference value :  1.52506e-05
 Reference value :  1.52509e-05
 Reference value :  1.52516e-05
 Reference value :  1.52522e-05
 Reference value :  1.52528e-05
 Reference value :  1.52535e-05
 Reference value :  1.52544e-05
 Reference value :  1.52551e-05
 Reference value :  1.52560e-05
 Reference value :  1.52567e-05
 Reference value :  1.52575e-05
 Reference value :  1.52585e-05
 Reference value :  1.52596e-05
 Reference value :  1.52617e-05
 Reference value :  1.52640e-05
 Reference value :  1.52680e-05
 Reference value :  1.52723e-05
 Reference value :  1.52809e-05
 Reference value :  1.52980e-05
 Reference value :  1.53323e-05
 Reference value :  1.54010e-05
 Reference value :  1.55000e-05
 Reference value :  1.55014e-05
 Reference value :  1.55042e-05
 Reference value :  1.55057e-05
 Reference value :  1.55071e-05
 Reference value :  1.55084e-05
 Reference value :  1.55096e-05
 Reference value :  1.55110e-05
 Reference value :  1.55124e-05
 Reference value :  1.55144e-05
 Reference value :  1.55170e-05
 Reference value :  1.55195e-05
 Reference value :  1.55221e-05
 Reference value :  1.55240e-05
 Reference value :  1.55259e-05
 Reference value :  1.55274e-05
 Reference value :  1.55291e-05
 Reference value :  1.55311e-05
 Reference value :  1.55341e-05
 Reference value :  1.55367e-05
 Reference value :  1.55410e-05
 Reference value :  1.55457e-05
 Reference value :  1.55540e-05
 Reference value :  1.55644e-05
 Reference value :  1.55826e-05
 Reference value :  1.56105e-05
 Reference value :  1.56463e-05
 Reference value :  1.56842e-05
 Reference value :  1.57110e-05
 Reference value :  1.57361e-05
 Reference value :  1.57501e-05
 Reference value :  1.57501e-05
 Reference value :  1.57501e-05
 Reference value :  1.57502e-05
 Reference value :  1.57502e-05
 Reference value :  1.57502e-05
 Reference value :  1.57502e-05
 Reference value :  1.57502e-05
 Reference value :  1.57502e-05
 Reference value :  1.57502e-05
 Reference value :  1.57502e-05
 Reference value :  1.57503e-05
 Reference value :  1.57504e-05
 Reference value :  1.57506e-05
 Reference value :  1.57509e-05
 Reference value :  1.57515e-05
 Reference value :  1.57522e-05
 Reference value :  1.57528e-05
 Reference value :  1.57535e-05
 Reference value :  1.57544e-05
 Reference value :  1.57551e-05
 Reference value :  1.57559e-05
 Reference value :  1.57567e-05
 Reference value :  1.57576e-05
 Reference value :  1.57588e-05
 Reference value :  1.57608e-05
 Reference value :  1.57633e-05
 Reference value :  1.57662e-05
 Reference value :  1.57706e-05
 Reference value :  1.57771e-05
 Reference value :  1.57902e-05
 Reference value :  1.58162e-05
 Reference value :  1.58534e-05
 Reference value :  1.58915e-05
 Reference value :  1.59300e-05
[...]
 Reference value :  1.74261e-04
 Reference value :  1.74263e-04
 Reference value :  1.74266e-04
 Reference value :  1.74271e-04
 Reference value :  1.74277e-04
 Reference value :  1.74290e-04
 Reference value :  1.74316e-04
 Reference value :  1.74369e-04
 Reference value :  1.74474e-04
 Reference value :  1.74500e-04
 Reference value :  1.74500e-04
 Reference value :  1.74500e-04
 Reference value :  1.74500e-04
 Reference value :  1.74500e-04
 Reference value :  1.74500e-04
 Reference value :  1.74500e-04
 Reference value :  1.74500e-04
 Reference value :  1.74500e-04
 Reference value :  1.74500e-04
 Reference value :  1.74500e-04
 Reference value :  1.74501e-04
 Reference value :  1.74501e-04
 Reference value :  1.74501e-04
 Reference value :  1.74502e-04
 Reference value :  1.74503e-04
 Reference value :  1.74503e-04
 Reference value :  1.74504e-04
 Reference value :  1.74505e-04
 Reference value :  1.74506e-04
 Reference value :  1.74507e-04
 Reference value :  1.74508e-04
 Reference value :  1.74509e-04
 Reference value :  1.74510e-04
 Reference value :  1.74512e-04
 Reference value :  1.74513e-04
 Reference value :  1.74515e-04
 Reference value :  1.74516e-04
 Reference value :  1.74518e-04
 Reference value :  1.74520e-04
 Reference value :  1.74523e-04
 Reference value :  1.74528e-04
 Reference value :  1.74538e-04
 Reference value :  1.74557e-04
 Reference value :  1.74594e-04
 Reference value :  1.74667e-04
 Reference value :  1.74750e-04
 Reference value :  1.74750e-04
 Reference value :  1.74750e-04
 Reference value :  1.74750e-04
 Reference value :  1.74750e-04
 Reference value :  1.74750e-04
 Reference value :  1.74750e-04
 Reference value :  1.74750e-04
 Reference value :  1.74750e-04
 Reference value :  1.74750e-04
 Reference value :  1.74750e-04
 Reference value :  1.74750e-04
 Reference value :  1.74750e-04
 Reference value :  1.74751e-04
 Reference value :  1.74751e-04
 Reference value :  1.74752e-04
 Reference value :  1.74752e-04
 Reference value :  1.74753e-04
 Reference value :  1.74753e-04
 Reference value :  1.74754e-04
 Reference value :  1.74755e-04
 Reference value :  1.74756e-04
 Reference value :  1.74757e-04
 Reference value :  1.74758e-04
 Reference value :  1.74759e-04
 Reference value :  1.74760e-04
 Reference value :  1.74761e-04
 Reference value :  1.74762e-04
 Reference value :  1.74765e-04
 Reference value :  1.74767e-04
 Reference value :  1.74771e-04
 Reference value :  1.74775e-04
 Reference value :  1.74784e-04
 Reference value :  1.74799e-04
 Reference value :  1.74827e-04
 Reference value :  1.74884e-04
 Reference value :  1.74998e-04
 Reference value :  1.75000e-04
 Reference value :  1.75000e-04
 Reference value :  1.75000e-04
 Reference value :  1.75000e-04
 Reference value :  1.75000e-04
 Reference value :  1.75000e-04
 Reference value :  1.75000e-04
 Reference value :  1.75000e-04
 Reference value :  1.75000e-04
 Reference value :  1.75000e-04
 Reference value :  1.75000e-04
 Reference value :  1.75001e-04
 Reference value :  1.75001e-04
 Reference value :  1.75001e-04
 Reference value :  1.75002e-04
 Reference value :  1.75003e-04
 Reference value :  1.75003e-04
 Reference value :  1.75004e-04
 Reference value :  1.75005e-04
 Reference value :  1.75006e-04
 Reference value :  1.75006e-04
 Reference value :  1.75007e-04
 Reference value :  1.75008e-04
 Reference value :  1.75009e-04
 Reference value :  1.75010e-04
 Reference value :  1.75011e-04
 Reference value :  1.75013e-04
 Reference value :  1.75015e-04
 Reference value :  1.75016e-04
 Reference value :  1.75018e-04
 Reference value :  1.75020e-04
 Reference value :  1.75021e-04
 Reference value :  1.75023e-04
 Reference value :  1.75025e-04
 Reference value :  1.75026e-04
 Reference value :  1.75027e-04
 Reference value :  1.75029e-04
 Reference value :  1.75031e-04
 Reference value :  1.75034e-04
 Reference value :  1.75037e-04
 Reference value :  1.75043e-04
 Reference value :  1.75052e-04
 Reference value :  1.75061e-04
 Reference value :  1.75072e-04
 Reference value :  1.75083e-04
 Reference value :  1.75093e-04
 Reference value :  1.75101e-04
 Reference value :  1.75109e-04
 Reference value :  1.75119e-04
 Reference value :  1.75127e-04
 Reference value :  1.75145e-04
 Reference value :  1.75173e-04
 Reference value :  1.75214e-04
 Reference value :  1.75250e-04
 Reference value :  1.75250e-04
 Reference value :  1.75250e-04
 Reference value :  1.75250e-04
 Reference value :  1.75250e-04
 Reference value :  1.75250e-04
 Reference value :  1.75250e-04
 Reference value :  1.75250e-04
 Reference value :  1.75250e-04
 Reference value :  1.75250e-04
 Reference value :  1.75250e-04
 Reference value :  1.75250e-04
 Reference value :  1.75250e-04
 Reference value :  1.75251e-04
 Reference value :  1.75251e-04
 Reference value :  1.75252e-04
 Reference value :  1.75252e-04
 Reference value :  1.75253e-04
 Reference value :  1.75254e-04
 Reference value :  1.75254e-04
 Reference value :  1.75255e-04
 Reference value :  1.75256e-04
 Reference value :  1.75257e-04
 Reference value :  1.75258e-04
 Reference value :  1.75259e-04
 Reference value :  1.75261e-04
 Reference value :  1.75263e-04
 Reference value :  1.75266e-04
 Reference value :  1.75271e-04
 Reference value :  1.75277e-04
 Reference value :  1.75288e-04
 Reference value :  1.75300e-04
 Reference value :  1.75309e-04
 Reference value :  1.75319e-04
 Reference value :  1.75332e-04
 Reference value :  1.75352e-04
 Reference value :  1.75381e-04
 Reference value :  1.75427e-04
 Reference value :  1.75469e-04
 Reference value :  1.75500e-04
 Reference value :  1.75500e-04
 Reference value :  1.75500e-04
 Reference value :  1.75500e-04
 Reference value :  1.75500e-04
 Reference value :  1.75500e-04
 Reference value :  1.75500e-04
 Reference value :  1.75500e-04
 Reference value :  1.75500e-04
 Reference value :  1.75500e-04
 Reference value :  1.75500e-04
 Reference value :  1.75501e-04
 Reference value :  1.75501e-04
 Reference value :  1.75501e-04
 Reference value :  1.75502e-04
 Reference value :  1.75503e-04
 Reference value :  1.75503e-04
 Reference value :  1.75504e-04
 Reference value :  1.75505e-04
 Reference value :  1.75506e-04
 Reference value :  1.75507e-04
 Reference value :  1.75508e-04
 Reference value :  1.75509e-04
 Reference value :  1.75511e-04
 Reference value :  1.75512e-04
 Reference value :  1.75514e-04
 Reference value :  1.75515e-04
 Reference value :  1.75517e-04
 Reference value :  1.75519e-04
 Reference value :  1.75522e-04
 Reference value :  1.75527e-04
 Reference value :  1.75534e-04
 Reference value :  1.75548e-04
 Reference value :  1.75573e-04
 Reference value :  1.75618e-04
 Reference value :  1.75702e-04
 Reference value :  1.75750e-04
 Reference value :  1.75750e-04
 Reference value :  1.75750e-04
 Reference value :  1.75750e-04
 Reference value :  1.75750e-04
 Reference value :  1.75750e-04
 Reference value :  1.75750e-04
 Reference value :  1.75750e-04
 Reference value :  1.75750e-04
 Reference value :  1.75750e-04
 Reference value :  1.75750e-04
 Reference value :  1.75750e-04
 Reference value :  1.75750e-04
 Reference value :  1.75751e-04
 Reference value :  1.75751e-04
 Reference value :  1.75752e-04
 Reference value :  1.75752e-04
 Reference value :  1.75753e-04
 Reference value :  1.75753e-04
 Reference value :  1.75754e-04
 Reference value :  1.75755e-04
 Reference value :  1.75756e-04
 Reference value :  1.75757e-04
 Reference value :  1.75758e-04
 Reference value :  1.75759e-04
 Reference value :  1.75760e-04
 Reference value :  1.75761e-04
 Reference value :  1.75762e-04
 Reference value :  1.75764e-04
 Reference value :  1.75767e-04
 Reference value :  1.75771e-04
 Reference value :  1.75775e-04
 Reference value :  1.75784e-04
 Reference value :  1.75798e-04
 Reference value :  1.75825e-04
 Reference value :  1.75880e-04
 Reference value :  1.75990e-04
 Reference value :  1.76000e-04
 Reference value :  1.76000e-04
 Reference value :  1.76000e-04
 Reference value :  1.76000e-04
 Reference value :  1.76000e-04
 Reference value :  1.76000e-04
 Reference value :  1.76000e-04
 Reference value :  1.76000e-04
 Reference value :  1.76000e-04
 Reference value :  1.76000e-04
 Reference value :  1.76000e-04
 Reference value :  1.76001e-04
 Reference value :  1.76001e-04
 Reference value :  1.76001e-04
 Reference value :  1.76002e-04
 Reference value :  1.76003e-04
 Reference value :  1.76003e-04
 Reference value :  1.76004e-04
 Reference value :  1.76005e-04
 Reference value :  1.76006e-04
 Reference value :  1.76006e-04
 Reference value :  1.76007e-04
 Reference value :  1.76008e-04
 Reference value :  1.76009e-04
 Reference value :  1.76010e-04
 Reference value :  1.76012e-04
 Reference value :  1.76013e-04
 Reference value :  1.76015e-04
 Reference value :  1.76016e-04
 Reference value :  1.76018e-04
 Reference value :  1.76020e-04
 Reference value :  1.76022e-04
 Reference value :  1.76023e-04
 Reference value :  1.76025e-04
 Reference value :  1.76026e-04
 Reference value :  1.76028e-04
 Reference value :  1.76029e-04
 Reference value :  1.76032e-04
 Reference value :  1.76034e-04
 Reference value :  1.76038e-04
 Reference value :  1.76042e-04
 Reference value :  1.76045e-04
 Reference value :  1.76048e-04
 Reference value :  1.76051e-04
 Reference value :  1.76054e-04
 Reference value :  1.76058e-04
 Reference value :  1.76065e-04
 Reference value :  1.76073e-04
 Reference value :  1.76087e-04
 Reference value :  1.76112e-04
 Reference value :  1.76149e-04
 Reference value :  1.76215e-04
 Reference value :  1.76250e-04
 Reference value :  1.76250e-04
 Reference value :  1.76250e-04
 Reference value :  1.76250e-04
 Reference value :  1.76250e-04
 Reference value :  1.76250e-04
 Reference value :  1.76250e-04
 Reference value :  1.76250e-04
 Reference value :  1.76250e-04
 Reference value :  1.76250e-04
 Reference value :  1.76250e-04
 Reference value :  1.76250e-04
 Reference value :  1.76250e-04
 Reference value :  1.76251e-04
 Reference value :  1.76251e-04
 Reference value :  1.76252e-04
 Reference value :  1.76252e-04
 Reference value :  1.76253e-04
 Reference value :  1.76253e-04
 Reference value :  1.76254e-04
 Reference value :  1.76255e-04
 Reference value :  1.76256e-04
 Reference value :  1.76257e-04
 Reference value :  1.76258e-04
 Reference value :  1.76259e-04
 Reference value :  1.76261e-04
 Reference value :  1.76263e-04
 Reference value :  1.76266e-04
 Reference value :  1.76271e-04
 Reference value :  1.76277e-04
 Reference value :  1.76291e-04
 Reference value :  1.76317e-04
 Reference value :  1.76369e-04
 Reference value :  1.76474e-04
 Reference value :  1.76500e-04
 Reference value :  1.76500e-04
 Reference value :  1.76500e-04
 Reference value :  1.76500e-04
 Reference value :  1.76500e-04
 Reference value :  1.76500e-04
 Reference value :  1.76500e-04
 Reference value :  1.76500e-04
 Reference value :  1.76500e-04
 Reference value :  1.76500e-04
 Reference value :  1.76500e-04
 Reference value :  1.76501e-04
 Reference value :  1.76501e-04
 Reference value :  1.76501e-04
 Reference value :  1.76502e-04
 Reference value :  1.76503e-04
 Reference value :  1.76503e-04
 Reference value :  1.76504e-04
 Reference value :  1.76505e-04
 Reference value :  1.76506e-04
 Reference value :  1.76507e-04
 Reference value :  1.76508e-04
 Reference value :  1.76509e-04
 Reference value :  1.76510e-04
 Reference value :  1.76512e-04
 Reference value :  1.76514e-04
 Reference value :  1.76515e-04
 Reference value :  1.76517e-04
 Reference value :  1.76519e-04
 Reference value :  1.76521e-04
 Reference value :  1.76525e-04
 Reference value :  1.76530e-04
 Reference value :  1.76539e-04
 Reference value :  1.76555e-04
 Reference value :  1.76584e-04
 Reference value :  1.76639e-04
 Reference value :  1.76739e-04
 Reference value :  1.76750e-04
 Reference value :  1.76750e-04
 Reference value :  1.76750e-04
 Reference value :  1.76750e-04
 Reference value :  1.76750e-04
 Reference value :  1.76750e-04
 Reference value :  1.76750e-04
 Reference value :  1.76750e-04
 Reference value :  1.76750e-04
 Reference value :  1.76750e-04
 Reference value :  1.76750e-04
 Reference value :  1.76750e-04
 Reference value :  1.76750e-04
 Reference value :  1.76751e-04
 Reference value :  1.76751e-04
 Reference value :  1.76752e-04
 Reference value :  1.76752e-04
 Reference value :  1.76753e-04
 Reference value :  1.76754e-04
 Reference value :  1.76754e-04
 Reference value :  1.76755e-04
 Reference value :  1.76756e-04
 Reference value :  1.76757e-04
 Reference value :  1.76757e-04
 Reference value :  1.76758e-04
 Reference value :  1.76760e-04
 Reference value :  1.76762e-04
 Reference value :  1.76764e-04
 Reference value :  1.76768e-04
 Reference value :  1.76772e-04
 Reference value :  1.76781e-04
 Reference value :  1.76798e-04
 Reference value :  1.76832e-04
 Reference value :  1.76901e-04
 Reference value :  1.77000e-04
 Reference value :  1.77000e-04
 Reference value :  1.77000e-04
 Reference value :  1.77000e-04
 Reference value :  1.77000e-04
 Reference value :  1.77000e-04
 Reference value :  1.77000e-04
 Reference value :  1.77000e-04
 Reference value :  1.77000e-04
 Reference value :  1.77000e-04
 Reference value :  1.77000e-04
 Reference value :  1.77001e-04
 Reference value :  1.77001e-04
 Reference value :  1.77001e-04
 Reference value :  1.77002e-04
 Reference value :  1.77003e-04
 Reference value :  1.77003e-04
 Reference value :  1.77004e-04
 Reference value :  1.77005e-04
 Reference value :  1.77006e-04
 Reference value :  1.77007e-04
 Reference value :  1.77007e-04
 Reference value :  1.77008e-04
 Reference value :  1.77009e-04
 Reference value :  1.77010e-04
 Reference value :  1.77012e-04
 Reference value :  1.77014e-04
 Reference value :  1.77017e-04
 Reference value :  1.77019e-04
 Reference value :  1.77022e-04
 Reference value :  1.77024e-04
 Reference value :  1.77025e-04
 Reference value :  1.77027e-04
 Reference value :  1.77028e-04
 Reference value :  1.77030e-04
 Reference value :  1.77033e-04
 Reference value :  1.77035e-04
 Reference value :  1.77040e-04
 Reference value :  1.77046e-04
 Reference value :  1.77056e-04
 Reference value :  1.77071e-04
 Reference value :  1.77089e-04
 Reference value :  1.77125e-04
 Reference value :  1.77197e-04
 Reference value :  1.77250e-04
 Reference value :  1.77250e-04
 Reference value :  1.77250e-04
 Reference value :  1.77250e-04
 Reference value :  1.77250e-04
 Reference value :  1.77250e-04
 Reference value :  1.77250e-04
 Reference value :  1.77250e-04
 Reference value :  1.77250e-04
 Reference value :  1.77250e-04
 Reference value :  1.77250e-04
 Reference value :  1.77250e-04
 Reference value :  1.77250e-04
 Reference value :  1.77251e-04
 Reference value :  1.77251e-04
 Reference value :  1.77252e-04
 Reference value :  1.77252e-04
 Reference value :  1.77253e-04
 Reference value :  1.77254e-04
 Reference value :  1.77254e-04
 Reference value :  1.77255e-04
 Reference value :  1.77256e-04
 Reference value :  1.77257e-04
 Reference value :  1.77258e-04
 Reference value :  1.77259e-04
 Reference value :  1.77261e-04
 Reference value :  1.77263e-04
 Reference value :  1.77266e-04
 Reference value :  1.77271e-04
 Reference value :  1.77277e-04
 Reference value :  1.77290e-04
 Reference value :  1.77317e-04
 Reference value :  1.77370e-04
 Reference value :  1.77475e-04
 Reference value :  1.77500e-04
 Reference value :  1.77500e-04
 Reference value :  1.77500e-04
 Reference value :  1.77500e-04
 Reference value :  1.77500e-04
 Reference value :  1.77500e-04
 Reference value :  1.77500e-04
 Reference value :  1.77500e-04
 Reference value :  1.77500e-04
 Reference value :  1.77500e-04
 Reference value :  1.77500e-04
 Reference value :  1.77501e-04
 Reference value :  1.77501e-04
 Reference value :  1.77501e-04
 Reference value :  1.77502e-04
 Reference value :  1.77503e-04
 Reference value :  1.77503e-04
 Reference value :  1.77504e-04
 Reference value :  1.77505e-04
 Reference value :  1.77506e-04
 Reference value :  1.77507e-04
 Reference value :  1.77508e-04
 Reference value :  1.77509e-04
 Reference value :  1.77511e-04
 Reference value :  1.77512e-04
 Reference value :  1.77513e-04
 Reference value :  1.77515e-04
 Reference value :  1.77516e-04
 Reference value :  1.77518e-04
 Reference value :  1.77520e-04
 Reference value :  1.77523e-04
 Reference value :  1.77528e-04
 Reference value :  1.77538e-04
 Reference value :  1.77557e-04
 Reference value :  1.77594e-04
 Reference value :  1.77667e-04
 Reference value :  1.77750e-04
 Reference value :  1.77750e-04
 Reference value :  1.77750e-04
 Reference value :  1.77750e-04
 Reference value :  1.77750e-04
 Reference value :  1.77750e-04
 Reference value :  1.77750e-04
 Reference value :  1.77750e-04
 Reference value :  1.77750e-04
 Reference value :  1.77750e-04
 Reference value :  1.77750e-04
 Reference value :  1.77750e-04
 Reference value :  1.77750e-04
 Reference value :  1.77751e-04
 Reference value :  1.77751e-04
 Reference value :  1.77752e-04
 Reference value :  1.77752e-04
 Reference value :  1.77753e-04
 Reference value :  1.77754e-04
 Reference value :  1.77754e-04
 Reference value :  1.77755e-04
 Reference value :  1.77756e-04
 Reference value :  1.77757e-04
 Reference value :  1.77757e-04
 Reference value :  1.77758e-04
 Reference value :  1.77760e-04
 Reference value :  1.77762e-04
 Reference value :  1.77764e-04
 Reference value :  1.77768e-04
 Reference value :  1.77772e-04
 Reference value :  1.77781e-04
 Reference value :  1.77798e-04
 Reference value :  1.77833e-04
 Reference value :  1.77902e-04
 Reference value :  1.78000e-04
 Reference value :  1.78000e-04
 Reference value :  1.78000e-04
 Reference value :  1.78000e-04
 Reference value :  1.78000e-04
 Reference value :  1.78000e-04
 Reference value :  1.78000e-04
 Reference value :  1.78000e-04
 Reference value :  1.78000e-04
 Reference value :  1.78000e-04
 Reference value :  1.78000e-04
 Reference value :  1.78001e-04
 Reference value :  1.78001e-04
 Reference value :  1.78001e-04
 Reference value :  1.78002e-04
 Reference value :  1.78003e-04
 Reference value :  1.78003e-04
 Reference value :  1.78004e-04
 Reference value :  1.78005e-04
 Reference value :  1.78006e-04
 Reference value :  1.78007e-04
 Reference value :  1.78007e-04
 Reference value :  1.78008e-04
 Reference value :  1.78009e-04
 Reference value :  1.78010e-04
 Reference value :  1.78012e-04
 Reference value :  1.78014e-04
 Reference value :  1.78017e-04
 Reference value :  1.78020e-04
 Reference value :  1.78023e-04
 Reference value :  1.78025e-04
 Reference value :  1.78028e-04
 Reference value :  1.78034e-04
 Reference value :  1.78042e-04
 Reference value :  1.78054e-04
 Reference value :  1.78077e-04
 Reference value :  1.78121e-04
 Reference value :  1.78210e-04
 Reference value :  1.78250e-04
 Reference value :  1.78250e-04
 Reference value :  1.78250e-04
 Reference value :  1.78250e-04
 Reference value :  1.78250e-04
 Reference value :  1.78250e-04
 Reference value :  1.78250e-04
 Reference value :  1.78250e-04
 Reference value :  1.78250e-04
 Reference value :  1.78250e-04
 Reference value :  1.78250e-04
 Reference value :  1.78250e-04
 Reference value :  1.78250e-04
 Reference value :  1.78251e-04
 Reference value :  1.78251e-04
 Reference value :  1.78252e-04
 Reference value :  1.78252e-04
 Reference value :  1.78253e-04
 Reference value :  1.78254e-04
 Reference value :  1.78254e-04
 Reference value :  1.78255e-04
 Reference value :  1.78257e-04
 Reference value :  1.78258e-04
 Reference value :  1.78259e-04
 Reference value :  1.78262e-04
 Reference value :  1.78265e-04
 Reference value :  1.78269e-04
 Reference value :  1.78273e-04
 Reference value :  1.78283e-04
 Reference value :  1.78302e-04
 Reference value :  1.78340e-04
 Reference value :  1.78416e-04
 Reference value :  1.78500e-04
No. of Data Rows : 27769
ngspice-44 done
