
Note: Compatibility modes selected: hs a


Circuit: ** sch_path: /home/ece/cace/sar-adc-using-sky130-pdk/runs/run_2025-09-13_02-53-27/parameters/sndr/run_0/sndr_enob_fom.sch

option SCALE: Scale is set to 1e-06 for instance and model parameters
option SCALE: Scale is set to 1e-06 for instance and model parameters
option SCALE: Scale is set to 1e-06 for instance and model parameters
option SCALE: Scale is set to 1e-06 for instance and model parameters
Doing analysis at TEMP = 27.000000 and TNOM = 27.000000

Using KLU as Direct Linear Solver
Operating point simulation skipped by 'uic',
  now using transient initial conditions.
 Reference value :  1.00000e-12
 Reference value :  1.02800e-12
 Reference value :  1.42000e-12
 Reference value :  2.34668e-12
 Reference value :  4.45611e-12
 Reference value :  1.35774e-11
 Reference value :  3.29081e-11
 Reference value :  1.00000e-10
 Reference value :  1.15465e-10
 Reference value :  2.59801e-10
 Reference value :  9.83324e-10
 Reference value :  1.93296e-09
 Reference value :  4.20569e-09
 Reference value :  6.27512e-09
 Reference value :  7.72526e-09
 Reference value :  9.14103e-09
 Reference value :  1.34712e-08
 Reference value :  2.56177e-08
 Reference value :  3.30973e-08
 Reference value :  4.44179e-08
 Reference value :  1.77204e-07
 Reference value :  2.50130e-07
 Reference value :  2.50208e-07
 Reference value :  2.50313e-07
 Reference value :  2.50726e-07
 Reference value :  2.51833e-07
 Reference value :  2.52920e-07
 Reference value :  2.54225e-07
 Reference value :  2.55485e-07
 Reference value :  2.57159e-07
 Reference value :  2.60151e-07
 Reference value :  2.66651e-07
 Reference value :  2.85984e-07
 Reference value :  4.28041e-07
 Reference value :  5.00030e-07
 Reference value :  5.00100e-07
 Reference value :  5.00124e-07
 Reference value :  5.00220e-07
 Reference value :  5.00518e-07
 Reference value :  5.01310e-07
 Reference value :  5.01746e-07
 Reference value :  5.02669e-07
 Reference value :  5.03217e-07
 Reference value :  5.04427e-07
 Reference value :  5.06122e-07
 Reference value :  5.07297e-07
 Reference value :  5.09877e-07
 Reference value :  5.12562e-07
 Reference value :  5.14004e-07
 Reference value :  5.17408e-07
 Reference value :  5.28365e-07
 Reference value :  5.85100e-07
 Reference value :  7.50110e-07
 Reference value :  7.50200e-07
 Reference value :  7.50256e-07
 Reference value :  7.50448e-07
 Reference value :  7.51567e-07
 Reference value :  7.53359e-07
 Reference value :  7.54453e-07
 Reference value :  7.55631e-07
 Reference value :  7.57326e-07
 Reference value :  7.60576e-07
 Reference value :  7.75942e-07
 Reference value :  9.97394e-07
 Reference value :  1.00007e-06
 Reference value :  1.00016e-06
 Reference value :  1.00052e-06
 Reference value :  1.00182e-06
 Reference value :  1.00334e-06
 Reference value :  1.00576e-06
 Reference value :  1.00935e-06
 Reference value :  1.01263e-06
 Reference value :  1.01536e-06
 Reference value :  1.01856e-06
 Reference value :  1.02805e-06
 Reference value :  1.13411e-06
 Reference value :  1.25011e-06
 Reference value :  1.25020e-06
 Reference value :  1.25032e-06
 Reference value :  1.25102e-06
 Reference value :  1.25258e-06
 Reference value :  1.25386e-06
 Reference value :  1.25518e-06
 Reference value :  1.25832e-06
 Reference value :  1.26730e-06
 Reference value :  1.32711e-06
 Reference value :  1.50001e-06
 Reference value :  1.50010e-06
 Reference value :  1.50016e-06
 Reference value :  1.50034e-06
 Reference value :  1.50086e-06
 Reference value :  1.50175e-06
 Reference value :  1.50322e-06
 Reference value :  1.50442e-06
 Reference value :  1.50604e-06
 Reference value :  1.50673e-06
 Reference value :  1.50839e-06
 Reference value :  1.51031e-06
 Reference value :  1.51272e-06
 Reference value :  1.52522e-06
 Reference value :  1.59567e-06
 Reference value :  1.75011e-06
 Reference value :  1.75020e-06
 Reference value :  1.75026e-06
 Reference value :  1.75070e-06
 Reference value :  1.75156e-06
 Reference value :  1.75258e-06
 Reference value :  1.75386e-06
 Reference value :  1.75501e-06
 Reference value :  1.75646e-06
 Reference value :  1.75829e-06
 Reference value :  1.76065e-06
 Reference value :  1.76870e-06
 Reference value :  1.82073e-06
 Reference value :  2.00000e-06
 Reference value :  2.00003e-06
 Reference value :  2.00010e-06
 Reference value :  2.00012e-06
 Reference value :  2.00022e-06
 Reference value :  2.00052e-06
 Reference value :  2.00131e-06
 Reference value :  2.00231e-06
 Reference value :  2.00334e-06
 Reference value :  2.00457e-06
 Reference value :  2.00575e-06
 Reference value :  2.00726e-06
 Reference value :  2.00935e-06
 Reference value :  2.01147e-06
 Reference value :  2.01351e-06
 Reference value :  2.01536e-06
 Reference value :  2.01737e-06
 Reference value :  2.01979e-06
 Reference value :  2.02802e-06
 Reference value :  2.07482e-06
 Reference value :  2.25010e-06
 Reference value :  2.25017e-06
 Reference value :  2.25022e-06
 Reference value :  2.25045e-06
 Reference value :  2.25101e-06
 Reference value :  2.25203e-06
 Reference value :  2.25326e-06
 Reference value :  2.25378e-06
 Reference value :  2.25496e-06
 Reference value :  2.25642e-06
 Reference value :  2.25924e-06
 Reference value :  2.27196e-06
 Reference value :  2.36576e-06
 Reference value :  2.50001e-06
 Reference value :  2.50007e-06
 Reference value :  2.50012e-06
 Reference value :  2.50022e-06
 Reference value :  2.50052e-06
 Reference value :  2.50131e-06
 Reference value :  2.50223e-06
 Reference value :  2.50322e-06
 Reference value :  2.50442e-06
 Reference value :  2.50521e-06
 Reference value :  2.50673e-06
 Reference value :  2.50840e-06
 Reference value :  2.51032e-06
 Reference value :  2.51272e-06
 Reference value :  2.52507e-06
 Reference value :  2.75010e-06
 Reference value :  2.75020e-06
 Reference value :  2.75032e-06
 Reference value :  2.75101e-06
 Reference value :  2.75252e-06
 Reference value :  2.75378e-06
 Reference value :  2.75490e-06
 Reference value :  2.75627e-06
 Reference value :  2.76020e-06
 Reference value :  2.77313e-06
 Reference value :  2.96603e-06
 Reference value :  3.00010e-06
 Reference value :  3.00022e-06
 Reference value :  3.00086e-06
 Reference value :  3.00231e-06
 Reference value :  3.00334e-06
 Reference value :  3.00518e-06
 Reference value :  3.00725e-06
 Reference value :  3.01043e-06
 Reference value :  3.01263e-06
 Reference value :  3.01437e-06
 Reference value :  3.01637e-06
 Reference value :  3.01856e-06
 Reference value :  3.02376e-06
 Reference value :  3.04949e-06
 Reference value :  3.07122e-06
 Reference value :  3.11193e-06
 Reference value :  3.12866e-06
 Reference value :  3.13859e-06
 Reference value :  3.16110e-06
 Reference value :  3.25010e-06
 Reference value :  3.25017e-06
 Reference value :  3.25032e-06
 Reference value :  3.25150e-06
 Reference value :  3.25326e-06
 Reference value :  3.25439e-06
 Reference value :  3.25560e-06
 Reference value :  3.26186e-06
 Reference value :  3.28638e-06
 Reference value :  3.48260e-06
 Reference value :  3.50007e-06
 Reference value :  3.50016e-06
 Reference value :  3.50086e-06
 Reference value :  3.50231e-06
 Reference value :  3.50333e-06
 Reference value :  3.50549e-06
 Reference value :  3.50718e-06
 Reference value :  3.50888e-06
 Reference value :  3.51087e-06
 Reference value :  3.52768e-06
 Reference value :  3.75010e-06
 Reference value :  3.75017e-06
 Reference value :  3.75026e-06
 Reference value :  3.75070e-06
 Reference value :  3.75202e-06
 Reference value :  3.75377e-06
 Reference value :  3.75490e-06
 Reference value :  3.75627e-06
 Reference value :  3.76088e-06
 Reference value :  3.80456e-06
 Reference value :  4.00001e-06
 Reference value :  4.00010e-06
 Reference value :  4.00022e-06
 Reference value :  4.00086e-06
 Reference value :  4.00231e-06
 Reference value :  4.00332e-06
 Reference value :  4.00521e-06
 Reference value :  4.00650e-06
 Reference value :  4.00976e-06
 Reference value :  4.01389e-06
 Reference value :  4.01611e-06
 Reference value :  4.01945e-06
 Reference value :  4.03112e-06
 Reference value :  4.04131e-06
 Reference value :  4.04939e-06
 Reference value :  4.06357e-06
 Reference value :  4.11672e-06
 Reference value :  4.25011e-06
 Reference value :  4.25021e-06
 Reference value :  4.25045e-06
 Reference value :  4.25150e-06
 Reference value :  4.25325e-06
 Reference value :  4.25433e-06
 Reference value :  4.25557e-06
 Reference value :  4.25925e-06
 Reference value :  4.28483e-06
 Reference value :  4.50000e-06
 Reference value :  4.50007e-06
 Reference value :  4.50012e-06
 Reference value :  4.50034e-06
 Reference value :  4.50131e-06
 Reference value :  4.50223e-06
 Reference value :  4.50322e-06
 Reference value :  4.50442e-06
 Reference value :  4.50604e-06
 Reference value :  4.50673e-06
 Reference value :  4.50840e-06
 Reference value :  4.51146e-06
 Reference value :  4.51860e-06
 Reference value :  4.55457e-06
 Reference value :  4.75010e-06
 Reference value :  4.75017e-06
 Reference value :  4.75022e-06
 Reference value :  4.75045e-06
 Reference value :  4.75101e-06
 Reference value :  4.75202e-06
 Reference value :  4.75325e-06
 Reference value :  4.75377e-06
 Reference value :  4.75490e-06
 Reference value :  4.75627e-06
 Reference value :  4.75793e-06
 Reference value :  4.76018e-06
 Reference value :  4.76708e-06
 Reference value :  4.79587e-06
 Reference value :  4.96137e-06
 Reference value :  5.00003e-06
 Reference value :  5.00010e-06
 Reference value :  5.00016e-06
 Reference value :  5.00052e-06
 Reference value :  5.00131e-06
 Reference value :  5.00231e-06
 Reference value :  5.00334e-06
 Reference value :  5.00457e-06
 Reference value :  5.00575e-06
 Reference value :  5.00817e-06
 Reference value :  5.01043e-06
 Reference value :  5.01263e-06
 Reference value :  5.01435e-06
 Reference value :  5.01644e-06
 Reference value :  5.01875e-06
 Reference value :  5.02957e-06
 Reference value :  5.05706e-06
 Reference value :  5.11209e-06
 Reference value :  5.19920e-06
 Reference value :  5.25017e-06
 Reference value :  5.25026e-06
 Reference value :  5.25070e-06
 Reference value :  5.25150e-06
 Reference value :  5.25325e-06
 Reference value :  5.25436e-06
 Reference value :  5.25557e-06
 Reference value :  5.26180e-06
 Reference value :  5.31191e-06
 Reference value :  5.50001e-06
 Reference value :  5.50011e-06
 Reference value :  5.50022e-06
 Reference value :  5.50086e-06
 Reference value :  5.50175e-06
 Reference value :  5.50322e-06
 Reference value :  5.50442e-06
 Reference value :  5.50604e-06
 Reference value :  5.50673e-06
 Reference value :  5.50840e-06
 Reference value :  5.51146e-06
 Reference value :  5.52485e-06
 Reference value :  5.66581e-06
 Reference value :  5.75013e-06
 Reference value :  5.75021e-06
 Reference value :  5.75032e-06
 Reference value :  5.75101e-06
 Reference value :  5.75202e-06
 Reference value :  5.75325e-06
 Reference value :  5.75377e-06
 Reference value :  5.75490e-06
 Reference value :  5.75626e-06
 Reference value :  5.75893e-06
 Reference value :  5.76406e-06
 Reference value :  5.79580e-06
 Reference value :  6.00001e-06
 Reference value :  6.00010e-06
 Reference value :  6.00016e-06
 Reference value :  6.00052e-06
 Reference value :  6.00131e-06
 Reference value :  6.00278e-06
 Reference value :  6.00393e-06
 Reference value :  6.00575e-06
 Reference value :  6.00817e-06
 Reference value :  6.01043e-06
 Reference value :  6.01263e-06
 Reference value :  6.01434e-06
 Reference value :  6.01644e-06
 Reference value :  6.01872e-06
 Reference value :  6.02438e-06
 Reference value :  6.03262e-06
 Reference value :  6.04078e-06
 Reference value :  6.10613e-06
 Reference value :  6.25011e-06
 Reference value :  6.25020e-06
 Reference value :  6.25026e-06
 Reference value :  6.25070e-06
 Reference value :  6.25150e-06
 Reference value :  6.25325e-06
 Reference value :  6.25377e-06
 Reference value :  6.25494e-06
 Reference value :  6.25767e-06
 Reference value :  6.27181e-06
 Reference value :  6.47221e-06
 Reference value :  6.50007e-06
 Reference value :  6.50012e-06
 Reference value :  6.50034e-06
 Reference value :  6.50131e-06
 Reference value :  6.50223e-06
 Reference value :  6.50322e-06
 Reference value :  6.50442e-06
 Reference value :  6.50604e-06
 Reference value :  6.50673e-06
 Reference value :  6.50840e-06
 Reference value :  6.51145e-06
 Reference value :  6.52481e-06
 Reference value :  6.66506e-06
 Reference value :  6.75013e-06
 Reference value :  6.75021e-06
 Reference value :  6.75045e-06
 Reference value :  6.75150e-06
 Reference value :  6.75325e-06
 Reference value :  6.75377e-06
 Reference value :  6.75490e-06
 Reference value :  6.75626e-06
 Reference value :  6.75792e-06
 Reference value :  6.76165e-06
 Reference value :  6.78143e-06
 Reference value :  6.95870e-06
 Reference value :  7.00007e-06
 Reference value :  7.00016e-06
 Reference value :  7.00052e-06
 Reference value :  7.00182e-06
 Reference value :  7.00278e-06
 Reference value :  7.00393e-06
 Reference value :  7.00575e-06
 Reference value :  7.00817e-06
 Reference value :  7.01146e-06
 Reference value :  7.01349e-06
 Reference value :  7.01542e-06
 Reference value :  7.01871e-06
 Reference value :  7.02682e-06
 Reference value :  7.07622e-06
 Reference value :  7.25011e-06
 Reference value :  7.25020e-06
 Reference value :  7.25032e-06
 Reference value :  7.25101e-06
 Reference value :  7.25202e-06
 Reference value :  7.25325e-06
 Reference value :  7.25436e-06
 Reference value :  7.25556e-06
 Reference value :  7.25918e-06
 Reference value :  7.28513e-06
 Reference value :  7.50000e-06
 Reference value :  7.50007e-06
 Reference value :  7.50012e-06
 Reference value :  7.50034e-06
 Reference value :  7.50131e-06
 Reference value :  7.50223e-06
 Reference value :  7.50322e-06
 Reference value :  7.50442e-06
 Reference value :  7.50604e-06
 Reference value :  7.50746e-06
 Reference value :  7.50937e-06
 Reference value :  7.51145e-06
 Reference value :  7.52478e-06
 Reference value :  7.66444e-06
 Reference value :  7.75013e-06
 Reference value :  7.75021e-06
 Reference value :  7.75032e-06
 Reference value :  7.75101e-06
 Reference value :  7.75202e-06
 Reference value :  7.75325e-06
 Reference value :  7.75377e-06
 Reference value :  7.75489e-06
 Reference value :  7.75626e-06
 Reference value :  7.75892e-06
 Reference value :  7.76404e-06
 Reference value :  7.79565e-06
 Reference value :  8.00000e-06
 Reference value :  8.00007e-06
 Reference value :  8.00016e-06
 Reference value :  8.00052e-06
 Reference value :  8.00182e-06
 Reference value :  8.00278e-06
 Reference value :  8.00393e-06
 Reference value :  8.00575e-06
 Reference value :  8.00725e-06
 Reference value :  8.00890e-06
 Reference value :  8.01042e-06
 Reference value :  8.01499e-06
 Reference value :  8.01684e-06
 Reference value :  8.02502e-06
 Reference value :  8.04428e-06
 Reference value :  8.06336e-06
 Reference value :  8.09864e-06
 Reference value :  8.25011e-06
 Reference value :  8.25021e-06
 Reference value :  8.25070e-06
 Reference value :  8.25202e-06
 Reference value :  8.25400e-06
 Reference value :  8.25696e-06
 Reference value :  8.26317e-06
 Reference value :  8.41084e-06
 Reference value :  8.50007e-06
 Reference value :  8.50022e-06
 Reference value :  8.50094e-06
 Reference value :  8.50195e-06
 Reference value :  8.50297e-06
 Reference value :  8.50424e-06
 Reference value :  8.50563e-06
 Reference value :  8.50849e-06
 Reference value :  8.51987e-06
 Reference value :  8.52616e-06
 Reference value :  8.53053e-06
 Reference value :  8.53699e-06
 Reference value :  8.54609e-06
 Reference value :  8.55567e-06
 Reference value :  8.56391e-06
 Reference value :  8.57222e-06
 Reference value :  8.58904e-06
 Reference value :  8.65676e-06
 Reference value :  8.75011e-06
 Reference value :  8.75013e-06
 Reference value :  8.75022e-06
 Reference value :  8.75045e-06
 Reference value :  8.75150e-06
 Reference value :  8.75251e-06
 Reference value :  8.75373e-06
 Reference value :  8.75553e-06
 Reference value :  8.75914e-06
 Reference value :  8.80876e-06
 Reference value :  9.00003e-06
 Reference value :  9.00012e-06
 Reference value :  9.00086e-06
 Reference value :  9.00175e-06
 Reference value :  9.00321e-06
 Reference value :  9.00521e-06
 Reference value :  9.00723e-06
 Reference value :  9.00983e-06
 Reference value :  9.01249e-06
 Reference value :  9.01533e-06
 Reference value :  9.01903e-06
 Reference value :  9.05018e-06
 Reference value :  9.25011e-06
 Reference value :  9.25020e-06
 Reference value :  9.25032e-06
 Reference value :  9.25101e-06
 Reference value :  9.25202e-06
 Reference value :  9.25377e-06
 Reference value :  9.25490e-06
 Reference value :  9.25700e-06
 Reference value :  9.25954e-06
 Reference value :  9.26937e-06
 Reference value :  9.31081e-06
 Reference value :  9.50000e-06
 Reference value :  9.50011e-06
 Reference value :  9.50034e-06
 Reference value :  9.50182e-06
 Reference value :  9.50334e-06
 Reference value :  9.50575e-06
 Reference value :  9.50817e-06
 Reference value :  9.51043e-06
 Reference value :  9.51263e-06
 Reference value :  9.51438e-06
 Reference value :  9.51638e-06
 Reference value :  9.51857e-06
 Reference value :  9.52816e-06
 Reference value :  9.63929e-06
 Reference value :  9.75013e-06
 Reference value :  9.75021e-06
 Reference value :  9.75032e-06
 Reference value :  9.75101e-06
 Reference value :  9.75202e-06
 Reference value :  9.75377e-06
 Reference value :  9.75494e-06
 Reference value :  9.75768e-06
 Reference value :  9.77182e-06
 Reference value :  9.97234e-06
 Reference value :  1.00001e-05
 Reference value :  1.00001e-05
 Reference value :  1.00005e-05
 Reference value :  1.00017e-05
 Reference value :  1.00032e-05
 Reference value :  1.00044e-05
 Reference value :  1.00060e-05
 Reference value :  1.00067e-05
 Reference value :  1.00084e-05
 Reference value :  1.00103e-05
 Reference value :  1.00115e-05
 Reference value :  1.00185e-05
 Reference value :  1.00540e-05
 Reference value :  1.02501e-05
 Reference value :  1.02502e-05
 Reference value :  1.02502e-05
 Reference value :  1.02504e-05
 Reference value :  1.02510e-05
 Reference value :  1.02515e-05
 Reference value :  1.02525e-05
 Reference value :  1.02538e-05
 Reference value :  1.02549e-05
 Reference value :  1.02563e-05
 Reference value :  1.02579e-05
 Reference value :  1.02616e-05
 Reference value :  1.02815e-05
 Reference value :  1.03670e-05
 Reference value :  1.05000e-05
 Reference value :  1.05001e-05
 Reference value :  1.05002e-05
 Reference value :  1.05009e-05
 Reference value :  1.05018e-05
 Reference value :  1.05028e-05
 Reference value :  1.05039e-05
 Reference value :  1.05058e-05
 Reference value :  1.05073e-05
 Reference value :  1.05093e-05
 Reference value :  1.05115e-05
 Reference value :  1.05135e-05
 Reference value :  1.05154e-05
 Reference value :  1.05186e-05
 Reference value :  1.05366e-05
 Reference value :  1.07501e-05
 Reference value :  1.07502e-05
 Reference value :  1.07507e-05
 Reference value :  1.07520e-05
 Reference value :  1.07533e-05
 Reference value :  1.07544e-05
 Reference value :  1.07549e-05
 Reference value :  1.07577e-05
 Reference value :  1.07651e-05
 Reference value :  1.08119e-05
 Reference value :  1.09643e-05
 Reference value :  1.10001e-05
 Reference value :  1.10001e-05
 Reference value :  1.10002e-05
 Reference value :  1.10005e-05
 Reference value :  1.10013e-05
 Reference value :  1.10017e-05
 Reference value :  1.10027e-05
 Reference value :  1.10038e-05
 Reference value :  1.10052e-05
 Reference value :  1.10067e-05
 Reference value :  1.10084e-05
 Reference value :  1.10115e-05
 Reference value :  1.10248e-05
 Reference value :  1.10907e-05
 Reference value :  1.12501e-05
 Reference value :  1.12502e-05
 Reference value :  1.12502e-05
 Reference value :  1.12504e-05
 Reference value :  1.12510e-05
 Reference value :  1.12515e-05
 Reference value :  1.12525e-05
 Reference value :  1.12538e-05
 Reference value :  1.12549e-05
 Reference value :  1.12563e-05
 Reference value :  1.12589e-05
 Reference value :  1.12616e-05
 Reference value :  1.12731e-05
 Reference value :  1.13195e-05
 Reference value :  1.15000e-05
 Reference value :  1.15001e-05
 Reference value :  1.15001e-05
 Reference value :  1.15002e-05
 Reference value :  1.15005e-05
 Reference value :  1.15013e-05
 Reference value :  1.15023e-05
 Reference value :  1.15033e-05
 Reference value :  1.15046e-05
 Reference value :  1.15058e-05
 Reference value :  1.15073e-05
 Reference value :  1.15082e-05
 Reference value :  1.15104e-05
 Reference value :  1.15126e-05
 Reference value :  1.15135e-05
 Reference value :  1.15154e-05
 Reference value :  1.15174e-05
 Reference value :  1.15196e-05
 Reference value :  1.15214e-05
 Reference value :  1.15267e-05
 Reference value :  1.15551e-05
 Reference value :  1.15963e-05
 Reference value :  1.16137e-05
 Reference value :  1.16296e-05
 Reference value :  1.16371e-05
 Reference value :  1.16511e-05
 Reference value :  1.17176e-05
 Reference value :  1.17501e-05
 Reference value :  1.17502e-05
 Reference value :  1.17503e-05
 Reference value :  1.17507e-05
 Reference value :  1.17515e-05
 Reference value :  1.17533e-05
 Reference value :  1.17538e-05
 Reference value :  1.17550e-05
 Reference value :  1.17565e-05
 Reference value :  1.17619e-05
 Reference value :  1.17865e-05
 Reference value :  1.19835e-05
 Reference value :  1.20000e-05
 Reference value :  1.20001e-05
 Reference value :  1.20002e-05
 Reference value :  1.20009e-05
 Reference value :  1.20018e-05
 Reference value :  1.20028e-05
 Reference value :  1.20033e-05
 Reference value :  1.20045e-05
 Reference value :  1.20064e-05
 Reference value :  1.20072e-05
 Reference value :  1.20089e-05
 Reference value :  1.20109e-05
 Reference value :  1.20187e-05
 Reference value :  1.20454e-05
 Reference value :  1.22501e-05
 Reference value :  1.22502e-05
 Reference value :  1.22502e-05
 Reference value :  1.22503e-05
 Reference value :  1.22507e-05
 Reference value :  1.22515e-05
 Reference value :  1.22525e-05
 Reference value :  1.22538e-05
 Reference value :  1.22549e-05
 Reference value :  1.22563e-05
 Reference value :  1.22588e-05
 Reference value :  1.22699e-05
 Reference value :  1.23502e-05
 Reference value :  1.25000e-05
 Reference value :  1.25001e-05
 Reference value :  1.25001e-05
 Reference value :  1.25002e-05
 Reference value :  1.25005e-05
 Reference value :  1.25013e-05
 Reference value :  1.25023e-05
 Reference value :  1.25033e-05
 Reference value :  1.25045e-05
 Reference value :  1.25058e-05
 Reference value :  1.25084e-05
 Reference value :  1.25098e-05
 Reference value :  1.25128e-05
 Reference value :  1.25139e-05
 Reference value :  1.25161e-05
 Reference value :  1.25182e-05
 Reference value :  1.25231e-05
 Reference value :  1.25312e-05
 Reference value :  1.25489e-05
 Reference value :  1.25577e-05
 Reference value :  1.25675e-05
 Reference value :  1.25790e-05
 Reference value :  1.26097e-05
 Reference value :  1.27501e-05
 Reference value :  1.27502e-05
 Reference value :  1.27502e-05
 Reference value :  1.27504e-05
 Reference value :  1.27515e-05
 Reference value :  1.27525e-05
 Reference value :  1.27538e-05
 Reference value :  1.27549e-05
 Reference value :  1.27578e-05
 Reference value :  1.27652e-05
 Reference value :  1.28106e-05
 Reference value :  1.30000e-05
 Reference value :  1.30001e-05
 Reference value :  1.30001e-05
 Reference value :  1.30003e-05
 Reference value :  1.30009e-05
 Reference value :  1.30017e-05
 Reference value :  1.30027e-05
 Reference value :  1.30038e-05
 Reference value :  1.30052e-05
 Reference value :  1.30067e-05
 Reference value :  1.30084e-05
 Reference value :  1.30103e-05
 Reference value :  1.30127e-05
 Reference value :  1.30247e-05
 Reference value :  1.30905e-05
 Reference value :  1.32501e-05
 Reference value :  1.32502e-05
 Reference value :  1.32503e-05
 Reference value :  1.32510e-05
 Reference value :  1.32520e-05
 Reference value :  1.32533e-05
 Reference value :  1.32538e-05
 Reference value :  1.32549e-05
 Reference value :  1.32563e-05
 Reference value :  1.32589e-05
 Reference value :  1.32617e-05
 Reference value :  1.32731e-05
 Reference value :  1.33197e-05
 Reference value :  1.35000e-05
 Reference value :  1.35001e-05
 Reference value :  1.35002e-05
 Reference value :  1.35009e-05
 Reference value :  1.35023e-05
 Reference value :  1.35033e-05
 Reference value :  1.35052e-05
 Reference value :  1.35064e-05
 Reference value :  1.35093e-05
 Reference value :  1.35115e-05
 Reference value :  1.35135e-05
 Reference value :  1.35164e-05
 Reference value :  1.35188e-05
 Reference value :  1.35245e-05
 Reference value :  1.35501e-05
 Reference value :  1.35910e-05
 Reference value :  1.37098e-05
 Reference value :  1.37501e-05
 Reference value :  1.37502e-05
 Reference value :  1.37507e-05
 Reference value :  1.37515e-05
 Reference value :  1.37533e-05
 Reference value :  1.37544e-05
 Reference value :  1.37549e-05
 Reference value :  1.37577e-05
 Reference value :  1.37718e-05
 Reference value :  1.39723e-05
 Reference value :  1.40001e-05
 Reference value :  1.40002e-05
 Reference value :  1.40005e-05
 Reference value :  1.40017e-05
 Reference value :  1.40032e-05
 Reference value :  1.40052e-05
 Reference value :  1.40067e-05
 Reference value :  1.40094e-05
 Reference value :  1.40151e-05
 Reference value :  1.40906e-05
 Reference value :  1.42501e-05
 Reference value :  1.42502e-05
 Reference value :  1.42507e-05
 Reference value :  1.42520e-05
 Reference value :  1.42538e-05
 Reference value :  1.42555e-05
 Reference value :  1.42579e-05
 Reference value :  1.42641e-05
 Reference value :  1.43195e-05
 Reference value :  1.45000e-05
 Reference value :  1.45002e-05
 Reference value :  1.45009e-05
 Reference value :  1.45023e-05
 Reference value :  1.45033e-05
 Reference value :  1.45052e-05
 Reference value :  1.45064e-05
 Reference value :  1.45104e-05
 Reference value :  1.45126e-05
 Reference value :  1.45154e-05
 Reference value :  1.45187e-05
 Reference value :  1.45294e-05
 Reference value :  1.45409e-05
 Reference value :  1.46076e-05
 Reference value :  1.47501e-05
 Reference value :  1.47502e-05
 Reference value :  1.47504e-05
 Reference value :  1.47515e-05
 Reference value :  1.47532e-05
 Reference value :  1.47538e-05
 Reference value :  1.47549e-05
 Reference value :  1.47577e-05
 Reference value :  1.47718e-05
 Reference value :  1.48653e-05
 Reference value :  1.50000e-05
 Reference value :  1.50001e-05
 Reference value :  1.50009e-05
 Reference value :  1.50022e-05
 Reference value :  1.50032e-05
 Reference value :  1.50044e-05
 Reference value :  1.50060e-05
 Reference value :  1.50075e-05
 Reference value :  1.50103e-05
 Reference value :  1.50127e-05
 Reference value :  1.50356e-05
 Reference value :  1.51640e-05
 Reference value :  1.52501e-05
 Reference value :  1.52502e-05
 Reference value :  1.52503e-05
 Reference value :  1.52510e-05
 Reference value :  1.52520e-05
 Reference value :  1.52533e-05
 Reference value :  1.52544e-05
 Reference value :  1.52555e-05
 Reference value :  1.52571e-05
 Reference value :  1.52602e-05
 Reference value :  1.52730e-05
 Reference value :  1.53664e-05
 Reference value :  1.55007e-05
 Reference value :  1.55028e-05
 Reference value :  1.55042e-05
 Reference value :  1.55047e-05
 Reference value :  1.55059e-05
 Reference value :  1.55074e-05
 Reference value :  1.55096e-05
 Reference value :  1.55105e-05
 Reference value :  1.55127e-05
 Reference value :  1.55145e-05
 Reference value :  1.55166e-05
 Reference value :  1.55189e-05
 Reference value :  1.55241e-05
 Reference value :  1.55369e-05
 Reference value :  1.55891e-05
 Reference value :  1.56263e-05
 Reference value :  1.56721e-05
 Reference value :  1.57033e-05
 Reference value :  1.57501e-05
 Reference value :  1.57502e-05
 Reference value :  1.57503e-05
 Reference value :  1.57507e-05
 Reference value :  1.57515e-05
 Reference value :  1.57525e-05
 Reference value :  1.57538e-05
 Reference value :  1.57550e-05
 Reference value :  1.57565e-05
 Reference value :  1.57618e-05
 Reference value :  1.57865e-05
 Reference value :  1.59839e-05
 Reference value :  1.60000e-05
 Reference value :  1.60001e-05
 Reference value :  1.60001e-05
 Reference value :  1.60003e-05
 Reference value :  1.60009e-05
 Reference value :  1.60018e-05
 Reference value :  1.60028e-05
 Reference value :  1.60039e-05
 Reference value :  1.60055e-05
 Reference value :  1.60072e-05
 Reference value :  1.60089e-05
 Reference value :  1.60098e-05
 Reference value :  1.60142e-05
 Reference value :  1.60811e-05
 Reference value :  1.62501e-05
 Reference value :  1.62502e-05
 Reference value :  1.62504e-05
 Reference value :  1.62510e-05
 Reference value :  1.62520e-05
 Reference value :  1.62532e-05
 Reference value :  1.62538e-05
 Reference value :  1.62549e-05
 Reference value :  1.62563e-05
 Reference value :  1.62609e-05
 Reference value :  1.63041e-05
 Reference value :  1.65000e-05
 Reference value :  1.65001e-05
 Reference value :  1.65003e-05
 Reference value :  1.65013e-05
 Reference value :  1.65033e-05
 Reference value :  1.65052e-05
 Reference value :  1.65065e-05
 Reference value :  1.65092e-05
 Reference value :  1.65178e-05
 Reference value :  1.67501e-05
 Reference value :  1.67502e-05
 Reference value :  1.67507e-05
 Reference value :  1.67515e-05
 Reference value :  1.67525e-05
 Reference value :  1.67540e-05
 Reference value :  1.67570e-05
 Reference value :  1.67602e-05
 Reference value :  1.67775e-05
 Reference value :  1.70000e-05
 Reference value :  1.70015e-05
 Reference value :  1.70045e-05
 Reference value :  1.70060e-05
 Reference value :  1.70111e-05
 Reference value :  1.70206e-05
 Reference value :  1.70255e-05
 Reference value :  1.70290e-05
 Reference value :  1.70317e-05
 Reference value :  1.70364e-05
 Reference value :  1.70399e-05
 Reference value :  1.70436e-05
 Reference value :  1.70518e-05
 Reference value :  1.70612e-05
 Reference value :  1.70756e-05
 Reference value :  1.71069e-05
 Reference value :  1.72501e-05
 Reference value :  1.72502e-05
 Reference value :  1.72503e-05
 Reference value :  1.72510e-05
 Reference value :  1.72520e-05
 Reference value :  1.72532e-05
 Reference value :  1.72543e-05
 Reference value :  1.72555e-05
 Reference value :  1.72615e-05
 Reference value :  1.72833e-05
 Reference value :  1.75000e-05
 Reference value :  1.75001e-05
 Reference value :  1.75002e-05
 Reference value :  1.75009e-05
 Reference value :  1.75017e-05
 Reference value :  1.75032e-05
 Reference value :  1.75052e-05
 Reference value :  1.75072e-05
 Reference value :  1.75098e-05
 Reference value :  1.75125e-05
 Reference value :  1.75154e-05
 Reference value :  1.75277e-05
 Reference value :  1.76406e-05
 Reference value :  1.77501e-05
 Reference value :  1.77502e-05
 Reference value :  1.77503e-05
 Reference value :  1.77507e-05
 Reference value :  1.77515e-05
 Reference value :  1.77533e-05
 Reference value :  1.77549e-05
 Reference value :  1.77570e-05
 Reference value :  1.77588e-05
 Reference value :  1.77634e-05
 Reference value :  1.77866e-05
 Reference value :  1.78546e-05
 Reference value :  1.80016e-05
 Reference value :  1.80049e-05
 Reference value :  1.80066e-05
 Reference value :  1.80096e-05
 Reference value :  1.80106e-05
 Reference value :  1.80129e-05
 Reference value :  1.80146e-05
 Reference value :  1.80167e-05
 Reference value :  1.80188e-05
 Reference value :  1.80220e-05
 Reference value :  1.80392e-05
 Reference value :  1.81635e-05
 Reference value :  1.82501e-05
 Reference value :  1.82502e-05
 Reference value :  1.82502e-05
 Reference value :  1.82504e-05
 Reference value :  1.82510e-05
 Reference value :  1.82520e-05
 Reference value :  1.82532e-05
 Reference value :  1.82537e-05
 Reference value :  1.82548e-05
 Reference value :  1.82563e-05
 Reference value :  1.82609e-05
 Reference value :  1.83033e-05
 Reference value :  1.85000e-05
 Reference value :  1.85001e-05
 Reference value :  1.85003e-05
 Reference value :  1.85013e-05
 Reference value :  1.85022e-05
 Reference value :  1.85032e-05
 Reference value :  1.85052e-05
 Reference value :  1.85067e-05
 Reference value :  1.85084e-05
 Reference value :  1.85103e-05
 Reference value :  1.85127e-05
 Reference value :  1.85355e-05
 Reference value :  1.87501e-05
 Reference value :  1.87502e-05
 Reference value :  1.87502e-05
 Reference value :  1.87503e-05
 Reference value :  1.87510e-05
 Reference value :  1.87520e-05
 Reference value :  1.87533e-05
 Reference value :  1.87538e-05
 Reference value :  1.87549e-05
 Reference value :  1.87563e-05
 Reference value :  1.87579e-05
 Reference value :  1.87602e-05
 Reference value :  1.87671e-05
 Reference value :  1.87959e-05
 Reference value :  1.89610e-05
 Reference value :  1.90000e-05
 Reference value :  1.90001e-05
 Reference value :  1.90002e-05
 Reference value :  1.90009e-05
 Reference value :  1.90018e-05
 Reference value :  1.90028e-05
 Reference value :  1.90039e-05
 Reference value :  1.90058e-05
 Reference value :  1.90082e-05
 Reference value :  1.90104e-05
 Reference value :  1.90126e-05
 Reference value :  1.90144e-05
 Reference value :  1.90164e-05
 Reference value :  1.90186e-05
 Reference value :  1.90281e-05
 Reference value :  1.91106e-05
 Reference value :  1.92501e-05
 Reference value :  1.92502e-05
 Reference value :  1.92503e-05
 Reference value :  1.92507e-05
 Reference value :  1.92515e-05
 Reference value :  1.92525e-05
 Reference value :  1.92538e-05
 Reference value :  1.92549e-05
 Reference value :  1.92564e-05
 Reference value :  1.92618e-05
 Reference value :  1.93119e-05
 Reference value :  1.95006e-05
 Reference value :  1.95025e-05
 Reference value :  1.95037e-05
 Reference value :  1.95067e-05
 Reference value :  1.95084e-05
 Reference value :  1.95113e-05
 Reference value :  1.95390e-05
 Reference value :  1.97501e-05
 Reference value :  1.97502e-05
 Reference value :  1.97504e-05
 Reference value :  1.97515e-05
 Reference value :  1.97532e-05
 Reference value :  1.97543e-05
 Reference value :  1.97554e-05
 Reference value :  1.97570e-05
 Reference value :  1.97600e-05
 Reference value :  1.97723e-05
 Reference value :  1.98490e-05
 Reference value :  2.00000e-05
 Reference value :  2.00001e-05
 Reference value :  2.00003e-05
 Reference value :  2.00013e-05
 Reference value :  2.00028e-05
 Reference value :  2.00039e-05
 Reference value :  2.00058e-05
 Reference value :  2.00082e-05
 Reference value :  2.00115e-05
 Reference value :  2.00135e-05
 Reference value :  2.00154e-05
 Reference value :  2.00186e-05
 Reference value :  2.00280e-05
 Reference value :  2.00650e-05
 Reference value :  2.01026e-05
 Reference value :  2.01173e-05
 Reference value :  2.01246e-05
 Reference value :  2.01495e-05
 Reference value :  2.02501e-05
 Reference value :  2.02502e-05
 Reference value :  2.02503e-05
 Reference value :  2.02507e-05
 Reference value :  2.02515e-05
 Reference value :  2.02533e-05
 Reference value :  2.02544e-05
 Reference value :  2.02556e-05
 Reference value :  2.02618e-05
 Reference value :  2.03146e-05
 Reference value :  2.05003e-05
 Reference value :  2.05012e-05
 Reference value :  2.05018e-05
 Reference value :  2.05028e-05
 Reference value :  2.05039e-05
 Reference value :  2.05065e-05
 Reference value :  2.05094e-05
 Reference value :  2.05116e-05
 Reference value :  2.05248e-05
 Reference value :  2.06433e-05
 Reference value :  2.07501e-05
 Reference value :  2.07502e-05
 Reference value :  2.07507e-05
 Reference value :  2.07520e-05
 Reference value :  2.07538e-05
 Reference value :  2.07549e-05
 Reference value :  2.07563e-05
 Reference value :  2.07641e-05
 Reference value :  2.09407e-05
 Reference value :  2.10001e-05
 Reference value :  2.10002e-05
 Reference value :  2.10009e-05
 Reference value :  2.10023e-05
 Reference value :  2.10033e-05
 Reference value :  2.10052e-05
 Reference value :  2.10065e-05
 Reference value :  2.10098e-05
 Reference value :  2.10128e-05
 Reference value :  2.10150e-05
 Reference value :  2.10172e-05
 Reference value :  2.10214e-05
 Reference value :  2.10389e-05
 Reference value :  2.10511e-05
 Reference value :  2.10617e-05
 Reference value :  2.10793e-05
 Reference value :  2.11150e-05
 Reference value :  2.12501e-05
 Reference value :  2.12502e-05
 Reference value :  2.12503e-05
 Reference value :  2.12510e-05
 Reference value :  2.12520e-05
 Reference value :  2.12533e-05
 Reference value :  2.12543e-05
 Reference value :  2.12556e-05
 Reference value :  2.12620e-05
 Reference value :  2.13106e-05
 Reference value :  2.15000e-05
 Reference value :  2.15001e-05
 Reference value :  2.15002e-05
 Reference value :  2.15005e-05
 Reference value :  2.15013e-05
 Reference value :  2.15022e-05
 Reference value :  2.15032e-05
 Reference value :  2.15044e-05
 Reference value :  2.15060e-05
 Reference value :  2.15067e-05
 Reference value :  2.15084e-05
 Reference value :  2.15115e-05
 Reference value :  2.15247e-05
 Reference value :  2.16638e-05
 Reference value :  2.17501e-05
 Reference value :  2.17502e-05
 Reference value :  2.17503e-05
 Reference value :  2.17510e-05
 Reference value :  2.17520e-05
 Reference value :  2.17533e-05
 Reference value :  2.17538e-05
 Reference value :  2.17549e-05
 Reference value :  2.17563e-05
 Reference value :  2.17579e-05
 Reference value :  2.17602e-05
 Reference value :  2.17671e-05
 Reference value :  2.17958e-05
 Reference value :  2.19604e-05
 Reference value :  2.20007e-05
 Reference value :  2.20027e-05
 Reference value :  2.20040e-05
 Reference value :  2.20045e-05
 Reference value :  2.20056e-05
 Reference value :  2.20075e-05
 Reference value :  2.20096e-05
 Reference value :  2.20106e-05
 Reference value :  2.20127e-05
 Reference value :  2.20135e-05
 Reference value :  2.20154e-05
 Reference value :  2.20174e-05
 Reference value :  2.20199e-05
 Reference value :  2.20280e-05
 Reference value :  2.20555e-05
 Reference value :  2.20720e-05
 Reference value :  2.21367e-05
 Reference value :  2.22501e-05
 Reference value :  2.22502e-05
 Reference value :  2.22502e-05
 Reference value :  2.22504e-05
 Reference value :  2.22515e-05
 Reference value :  2.22538e-05
 Reference value :  2.22564e-05
 Reference value :  2.22853e-05
 Reference value :  2.25000e-05
 Reference value :  2.25002e-05
 Reference value :  2.25009e-05
 Reference value :  2.25017e-05
 Reference value :  2.25032e-05
 Reference value :  2.25052e-05
 Reference value :  2.25067e-05
 Reference value :  2.25094e-05
 Reference value :  2.25127e-05
 Reference value :  2.25541e-05
 Reference value :  2.27501e-05
 Reference value :  2.27502e-05
 Reference value :  2.27504e-05
 Reference value :  2.27515e-05
 Reference value :  2.27533e-05
 Reference value :  2.27544e-05
 Reference value :  2.27555e-05
 Reference value :  2.27571e-05
 Reference value :  2.27602e-05
 Reference value :  2.27730e-05
 Reference value :  2.28667e-05
 Reference value :  2.30007e-05
 Reference value :  2.30028e-05
 Reference value :  2.30041e-05
 Reference value :  2.30052e-05
 Reference value :  2.30064e-05
 Reference value :  2.30094e-05
 Reference value :  2.30113e-05
 Reference value :  2.30124e-05
 Reference value :  2.30158e-05
 Reference value :  2.30180e-05
 Reference value :  2.30253e-05
 Reference value :  2.30379e-05
 Reference value :  2.30815e-05
 Reference value :  2.32501e-05
 Reference value :  2.32502e-05
 Reference value :  2.32503e-05
 Reference value :  2.32510e-05
 Reference value :  2.32525e-05
 Reference value :  2.32538e-05
 Reference value :  2.32549e-05
 Reference value :  2.32592e-05
 Reference value :  2.32853e-05
 Reference value :  2.35000e-05
 Reference value :  2.35001e-05
 Reference value :  2.35002e-05
 Reference value :  2.35005e-05
 Reference value :  2.35017e-05
 Reference value :  2.35032e-05
 Reference value :  2.35052e-05
 Reference value :  2.35067e-05
 Reference value :  2.35084e-05
 Reference value :  2.35114e-05
 Reference value :  2.35249e-05
 Reference value :  2.37501e-05
 Reference value :  2.37502e-05
 Reference value :  2.37503e-05
 Reference value :  2.37510e-05
 Reference value :  2.37525e-05
 Reference value :  2.37538e-05
 Reference value :  2.37549e-05
 Reference value :  2.37563e-05
 Reference value :  2.37589e-05
 Reference value :  2.37670e-05
 Reference value :  2.39582e-05
 Reference value :  2.40001e-05
 Reference value :  2.40002e-05
 Reference value :  2.40009e-05
 Reference value :  2.40023e-05
 Reference value :  2.40033e-05
 Reference value :  2.40052e-05
 Reference value :  2.40064e-05
 Reference value :  2.40093e-05
 Reference value :  2.40126e-05
 Reference value :  2.40135e-05
 Reference value :  2.40164e-05
 Reference value :  2.40187e-05
 Reference value :  2.40233e-05
 Reference value :  2.40387e-05
 Reference value :  2.42501e-05
 Reference value :  2.42502e-05
 Reference value :  2.42507e-05
 Reference value :  2.42525e-05
 Reference value :  2.42544e-05
 Reference value :  2.42577e-05
 Reference value :  2.43709e-05
 Reference value :  2.45001e-05
 Reference value :  2.45002e-05
 Reference value :  2.45009e-05
 Reference value :  2.45018e-05
 Reference value :  2.45028e-05
 Reference value :  2.45039e-05
 Reference value :  2.45055e-05
 Reference value :  2.45072e-05
 Reference value :  2.45089e-05
 Reference value :  2.45109e-05
 Reference value :  2.45276e-05
 Reference value :  2.47501e-05
 Reference value :  2.47502e-05
 Reference value :  2.47502e-05
 Reference value :  2.47504e-05
 Reference value :  2.47515e-05
 Reference value :  2.47525e-05
 Reference value :  2.47538e-05
 Reference value :  2.47549e-05
 Reference value :  2.47563e-05
 Reference value :  2.47609e-05
 Reference value :  2.48041e-05
 Reference value :  2.50000e-05
 Reference value :  2.50001e-05
 Reference value :  2.50002e-05
 Reference value :  2.50005e-05
 Reference value :  2.50013e-05
 Reference value :  2.50028e-05
 Reference value :  2.50039e-05
 Reference value :  2.50052e-05
 Reference value :  2.50065e-05
 Reference value :  2.50084e-05
 Reference value :  2.50103e-05
 Reference value :  2.50178e-05
 Reference value :  2.51322e-05
 Reference value :  2.52501e-05
 Reference value :  2.52502e-05
 Reference value :  2.52502e-05
 Reference value :  2.52503e-05
 Reference value :  2.52507e-05
 Reference value :  2.52515e-05
 Reference value :  2.52525e-05
 Reference value :  2.52540e-05
 Reference value :  2.52560e-05
 Reference value :  2.52585e-05
 Reference value :  2.52679e-05
 Reference value :  2.53347e-05
 Reference value :  2.55015e-05
 Reference value :  2.55045e-05
 Reference value :  2.55060e-05
 Reference value :  2.55111e-05
 Reference value :  2.55206e-05
 Reference value :  2.55255e-05
 Reference value :  2.55290e-05
 Reference value :  2.55317e-05
 Reference value :  2.55364e-05
 Reference value :  2.55399e-05
 Reference value :  2.55436e-05
 Reference value :  2.55595e-05
 Reference value :  2.55731e-05
 Reference value :  2.55832e-05
 Reference value :  2.55936e-05
 Reference value :  2.56124e-05
 Reference value :  2.56964e-05
 Reference value :  2.57501e-05
 Reference value :  2.57502e-05
 Reference value :  2.57507e-05
 Reference value :  2.57515e-05
 Reference value :  2.57532e-05
 Reference value :  2.57549e-05
 Reference value :  2.57615e-05
 Reference value :  2.59575e-05
 Reference value :  2.60001e-05
 Reference value :  2.60002e-05
 Reference value :  2.60005e-05
 Reference value :  2.60013e-05
 Reference value :  2.60022e-05
 Reference value :  2.60032e-05
 Reference value :  2.60052e-05
 Reference value :  2.60072e-05
 Reference value :  2.60098e-05
 Reference value :  2.60125e-05
 Reference value :  2.60154e-05
 Reference value :  2.60226e-05
 Reference value :  2.60806e-05
 Reference value :  2.62501e-05
 Reference value :  2.62502e-05
 Reference value :  2.62503e-05
 Reference value :  2.62510e-05
 Reference value :  2.62520e-05
 Reference value :  2.62533e-05
 Reference value :  2.62538e-05
 Reference value :  2.62549e-05
 Reference value :  2.62562e-05
 Reference value :  2.62577e-05
 Reference value :  2.62615e-05
 Reference value :  2.62769e-05
 Reference value :  2.63542e-05
 Reference value :  2.65017e-05
 Reference value :  2.65067e-05
 Reference value :  2.65097e-05
 Reference value :  2.65120e-05
 Reference value :  2.65140e-05
 Reference value :  2.65157e-05
 Reference value :  2.65175e-05
 Reference value :  2.65218e-05
 Reference value :  2.65388e-05
 Reference value :  2.66427e-05
 Reference value :  2.67501e-05
 Reference value :  2.67502e-05
 Reference value :  2.67503e-05
 Reference value :  2.67507e-05
 Reference value :  2.67515e-05
 Reference value :  2.67525e-05
 Reference value :  2.67536e-05
 Reference value :  2.67548e-05
 Reference value :  2.67563e-05
 Reference value :  2.67587e-05
 Reference value :  2.67698e-05
 Reference value :  2.68417e-05
 Reference value :  2.70000e-05
 Reference value :  2.70001e-05
 Reference value :  2.70001e-05
 Reference value :  2.70002e-05
 Reference value :  2.70003e-05
 Reference value :  2.70009e-05
 Reference value :  2.70017e-05
 Reference value :  2.70027e-05
 Reference value :  2.70032e-05
 Reference value :  2.70044e-05
 Reference value :  2.70052e-05
 Reference value :  2.70067e-05
 Reference value :  2.70084e-05
 Reference value :  2.70103e-05
 Reference value :  2.70127e-05
 Reference value :  2.70248e-05
 Reference value :  2.70919e-05
 Reference value :  2.72501e-05
 Reference value :  2.72502e-05
 Reference value :  2.72503e-05
 Reference value :  2.72507e-05
 Reference value :  2.72515e-05
 Reference value :  2.72525e-05
 Reference value :  2.72538e-05
 Reference value :  2.72549e-05
 Reference value :  2.72563e-05
 Reference value :  2.72589e-05
 Reference value :  2.72640e-05
 Reference value :  2.72814e-05
 Reference value :  2.73668e-05
 Reference value :  2.75000e-05
 Reference value :  2.75001e-05
 Reference value :  2.75002e-05
 Reference value :  2.75005e-05
 Reference value :  2.75013e-05
 Reference value :  2.75023e-05
 Reference value :  2.75033e-05
 Reference value :  2.75046e-05
 Reference value :  2.75058e-05
 Reference value :  2.75073e-05
 Reference value :  2.75093e-05
 Reference value :  2.75115e-05
 Reference value :  2.75126e-05
 Reference value :  2.75144e-05
 Reference value :  2.75154e-05
 Reference value :  2.75174e-05
 Reference value :  2.75198e-05
 Reference value :  2.75238e-05
 Reference value :  2.75511e-05
 Reference value :  2.76678e-05
 Reference value :  2.77501e-05
 Reference value :  2.77502e-05
 Reference value :  2.77503e-05
 Reference value :  2.77507e-05
 Reference value :  2.77515e-05
 Reference value :  2.77525e-05
 Reference value :  2.77538e-05
 Reference value :  2.77549e-05
 Reference value :  2.77564e-05
 Reference value :  2.77618e-05
 Reference value :  2.77852e-05
 Reference value :  2.79643e-05
 Reference value :  2.80006e-05
 Reference value :  2.80025e-05
 Reference value :  2.80037e-05
 Reference value :  2.80060e-05
 Reference value :  2.80067e-05
 Reference value :  2.80084e-05
 Reference value :  2.80102e-05
 Reference value :  2.80148e-05
 Reference value :  2.80390e-05
 Reference value :  2.82273e-05
 Reference value :  2.82501e-05
 Reference value :  2.82502e-05
 Reference value :  2.82503e-05
 Reference value :  2.82510e-05
 Reference value :  2.82520e-05
 Reference value :  2.82537e-05
 Reference value :  2.82554e-05
 Reference value :  2.82570e-05
 Reference value :  2.82600e-05
 Reference value :  2.82667e-05
 Reference value :  2.83141e-05
 Reference value :  2.85000e-05
 Reference value :  2.85001e-05
 Reference value :  2.85001e-05
 Reference value :  2.85003e-05
 Reference value :  2.85009e-05
 Reference value :  2.85023e-05
 Reference value :  2.85033e-05
 Reference value :  2.85046e-05
 Reference value :  2.85058e-05
 Reference value :  2.85073e-05
 Reference value :  2.85093e-05
 Reference value :  2.85115e-05
 Reference value :  2.85135e-05
 Reference value :  2.85154e-05
 Reference value :  2.85174e-05
 Reference value :  2.85186e-05
 Reference value :  2.85217e-05
 Reference value :  2.85360e-05
 Reference value :  2.85631e-05
 Reference value :  2.85818e-05
 Reference value :  2.85969e-05
 Reference value :  2.86104e-05
 Reference value :  2.86173e-05
 Reference value :  2.86406e-05
 Reference value :  2.87021e-05
 Reference value :  2.87501e-05
 Reference value :  2.87502e-05
 Reference value :  2.87503e-05
 Reference value :  2.87507e-05
 Reference value :  2.87515e-05
 Reference value :  2.87532e-05
 Reference value :  2.87538e-05
 Reference value :  2.87550e-05
 Reference value :  2.87577e-05
 Reference value :  2.87654e-05
 Reference value :  2.88145e-05
 Reference value :  2.90000e-05
 Reference value :  2.90003e-05
 Reference value :  2.90012e-05
 Reference value :  2.90018e-05
 Reference value :  2.90028e-05
 Reference value :  2.90045e-05
 Reference value :  2.90065e-05
 Reference value :  2.90084e-05
 Reference value :  2.90116e-05
 Reference value :  2.90350e-05
 Reference value :  2.92501e-05
 Reference value :  2.92502e-05
 Reference value :  2.92503e-05
 Reference value :  2.92510e-05
 Reference value :  2.92520e-05
 Reference value :  2.92532e-05
 Reference value :  2.92538e-05
 Reference value :  2.92549e-05
 Reference value :  2.92563e-05
 Reference value :  2.92641e-05
 Reference value :  2.94406e-05
 Reference value :  2.95001e-05
 Reference value :  2.95002e-05
 Reference value :  2.95005e-05
 Reference value :  2.95018e-05
 Reference value :  2.95028e-05
 Reference value :  2.95039e-05
 Reference value :  2.95058e-05
 Reference value :  2.95098e-05
 Reference value :  2.95128e-05
 Reference value :  2.95150e-05
 Reference value :  2.95172e-05
 Reference value :  2.95214e-05
 Reference value :  2.95319e-05
 Reference value :  2.95379e-05
 Reference value :  2.95508e-05
 Reference value :  2.95630e-05
 Reference value :  2.95729e-05
 Reference value :  2.95916e-05
 Reference value :  2.96293e-05
 Reference value :  2.97501e-05
 Reference value :  2.97502e-05
 Reference value :  2.97502e-05
 Reference value :  2.97503e-05
 Reference value :  2.97507e-05
 Reference value :  2.97515e-05
 Reference value :  2.97525e-05
 Reference value :  2.97538e-05
 Reference value :  2.97549e-05
 Reference value :  2.97564e-05
 Reference value :  2.97592e-05
 Reference value :  2.98106e-05
 Reference value :  3.00000e-05
 Reference value :  3.00001e-05
 Reference value :  3.00009e-05
 Reference value :  3.00022e-05
 Reference value :  3.00032e-05
 Reference value :  3.00052e-05
 Reference value :  3.00067e-05
 Reference value :  3.00094e-05
 Reference value :  3.00151e-05
 Reference value :  3.00905e-05
 Reference value :  3.02502e-05
 Reference value :  3.02503e-05
 Reference value :  3.02515e-05
 Reference value :  3.02533e-05
 Reference value :  3.02549e-05
 Reference value :  3.02571e-05
 Reference value :  3.02617e-05
 Reference value :  3.02958e-05
 Reference value :  3.05000e-05
 Reference value :  3.05007e-05
 Reference value :  3.05027e-05
 Reference value :  3.05040e-05
 Reference value :  3.05051e-05
 Reference value :  3.05061e-05
 Reference value :  3.05085e-05
 Reference value :  3.05106e-05
 Reference value :  3.05127e-05
 Reference value :  3.05144e-05
 Reference value :  3.05164e-05
 Reference value :  3.05199e-05
 Reference value :  3.05354e-05
 Reference value :  3.05630e-05
 Reference value :  3.06367e-05
 Reference value :  3.07501e-05
 Reference value :  3.07502e-05
 Reference value :  3.07504e-05
 Reference value :  3.07515e-05
 Reference value :  3.07533e-05
 Reference value :  3.07544e-05
 Reference value :  3.07549e-05
 Reference value :  3.07564e-05
 Reference value :  3.07618e-05
 Reference value :  3.08121e-05
 Reference value :  3.10000e-05
 Reference value :  3.10001e-05
 Reference value :  3.10002e-05
 Reference value :  3.10005e-05
 Reference value :  3.10017e-05
 Reference value :  3.10032e-05
 Reference value :  3.10044e-05
 Reference value :  3.10060e-05
 Reference value :  3.10067e-05
 Reference value :  3.10084e-05
 Reference value :  3.10114e-05
 Reference value :  3.10186e-05
 Reference value :  3.10541e-05
 Reference value :  3.12501e-05
 Reference value :  3.12501e-05
 Reference value :  3.12502e-05
 Reference value :  3.12503e-05
 Reference value :  3.12507e-05
 Reference value :  3.12515e-05
 Reference value :  3.12533e-05
 Reference value :  3.12538e-05
 Reference value :  3.12549e-05
 Reference value :  3.12563e-05
 Reference value :  3.12589e-05
 Reference value :  3.12671e-05
 Reference value :  3.13194e-05
 Reference value :  3.15000e-05
 Reference value :  3.15001e-05
 Reference value :  3.15005e-05
 Reference value :  3.15018e-05
 Reference value :  3.15033e-05
 Reference value :  3.15046e-05
 Reference value :  3.15058e-05
 Reference value :  3.15082e-05
 Reference value :  3.15115e-05
 Reference value :  3.15135e-05
 Reference value :  3.15164e-05
 Reference value :  3.15187e-05
 Reference value :  3.15294e-05
 Reference value :  3.15367e-05
 Reference value :  3.15756e-05
 Reference value :  3.15934e-05
 Reference value :  3.16182e-05
 Reference value :  3.16959e-05
 Reference value :  3.17501e-05
 Reference value :  3.17502e-05
 Reference value :  3.17503e-05
 Reference value :  3.17510e-05
 Reference value :  3.17520e-05
 Reference value :  3.17532e-05
 Reference value :  3.17544e-05
 Reference value :  3.17556e-05
 Reference value :  3.17653e-05
 Reference value :  3.19831e-05
 Reference value :  3.20001e-05
 Reference value :  3.20002e-05
 Reference value :  3.20009e-05
 Reference value :  3.20023e-05
 Reference value :  3.20033e-05
 Reference value :  3.20055e-05
 Reference value :  3.20072e-05
 Reference value :  3.20089e-05
 Reference value :  3.20109e-05
 Reference value :  3.20277e-05
 Reference value :  3.22501e-05
 Reference value :  3.22502e-05
 Reference value :  3.22503e-05
 Reference value :  3.22504e-05
 Reference value :  3.22510e-05
 Reference value :  3.22515e-05
 Reference value :  3.22525e-05
 Reference value :  3.22538e-05
 Reference value :  3.22549e-05
 Reference value :  3.22563e-05
 Reference value :  3.22609e-05
 Reference value :  3.22813e-05
 Reference value :  3.24420e-05
 Reference value :  3.25000e-05
 Reference value :  3.25001e-05
 Reference value :  3.25002e-05
 Reference value :  3.25005e-05
 Reference value :  3.25013e-05
 Reference value :  3.25023e-05
 Reference value :  3.25033e-05
 Reference value :  3.25045e-05
 Reference value :  3.25058e-05
 Reference value :  3.25084e-05
 Reference value :  3.25098e-05
 Reference value :  3.25128e-05
 Reference value :  3.25139e-05
 Reference value :  3.25161e-05
 Reference value :  3.25183e-05
 Reference value :  3.25214e-05
 Reference value :  3.25319e-05
 Reference value :  3.25770e-05
 Reference value :  3.26047e-05
 Reference value :  3.26649e-05
 Reference value :  3.27235e-05
 Reference value :  3.27501e-05
 Reference value :  3.27501e-05
 Reference value :  3.27502e-05
 Reference value :  3.27502e-05
 Reference value :  3.27504e-05
 Reference value :  3.27515e-05
 Reference value :  3.27532e-05
 Reference value :  3.27543e-05
 Reference value :  3.27556e-05
 Reference value :  3.27592e-05
 Reference value :  3.27717e-05
 Reference value :  3.28455e-05
 Reference value :  3.29263e-05
 Reference value :  3.30000e-05
 Reference value :  3.30001e-05
 Reference value :  3.30002e-05
 Reference value :  3.30005e-05
 Reference value :  3.30013e-05
 Reference value :  3.30022e-05
 Reference value :  3.30032e-05
 Reference value :  3.30044e-05
 Reference value :  3.30060e-05
 Reference value :  3.30067e-05
 Reference value :  3.30084e-05
 Reference value :  3.30115e-05
 Reference value :  3.30247e-05
 Reference value :  3.31632e-05
 Reference value :  3.32502e-05
 Reference value :  3.32503e-05
 Reference value :  3.32510e-05
 Reference value :  3.32520e-05
 Reference value :  3.32533e-05
 Reference value :  3.32544e-05
 Reference value :  3.32555e-05
 Reference value :  3.32579e-05
 Reference value :  3.32640e-05
 Reference value :  3.33190e-05
 Reference value :  3.35007e-05
 Reference value :  3.35030e-05
 Reference value :  3.35044e-05
 Reference value :  3.35056e-05
 Reference value :  3.35069e-05
 Reference value :  3.35086e-05
 Reference value :  3.35103e-05
 Reference value :  3.35123e-05
 Reference value :  3.35156e-05
 Reference value :  3.35178e-05
 Reference value :  3.35350e-05
 Reference value :  3.35585e-05
 Reference value :  3.35677e-05
 Reference value :  3.35867e-05
 Reference value :  3.36114e-05
 Reference value :  3.36837e-05
 Reference value :  3.37501e-05
 Reference value :  3.37502e-05
 Reference value :  3.37503e-05
 Reference value :  3.37507e-05
 Reference value :  3.37515e-05
 Reference value :  3.37532e-05
 Reference value :  3.37550e-05
 Reference value :  3.37585e-05
 Reference value :  3.37769e-05
 Reference value :  3.40000e-05
 Reference value :  3.40001e-05
 Reference value :  3.40002e-05
 Reference value :  3.40006e-05
 Reference value :  3.40014e-05
 Reference value :  3.40024e-05
 Reference value :  3.40036e-05
 Reference value :  3.40049e-05
 Reference value :  3.40071e-05
 Reference value :  3.40199e-05
 Reference value :  3.40262e-05
 Reference value :  3.40305e-05
 Reference value :  3.40375e-05
 Reference value :  3.40418e-05
 Reference value :  3.40493e-05
 Reference value :  3.40569e-05
 Reference value :  3.40660e-05
 Reference value :  3.40749e-05
 Reference value :  3.40855e-05
 Reference value :  3.40965e-05
 Reference value :  3.41341e-05
 Reference value :  3.41951e-05
 Reference value :  3.42501e-05
 Reference value :  3.42502e-05
 Reference value :  3.42503e-05
 Reference value :  3.42507e-05
 Reference value :  3.42515e-05
 Reference value :  3.42525e-05
 Reference value :  3.42537e-05
 Reference value :  3.42549e-05
 Reference value :  3.42563e-05
 Reference value :  3.42619e-05
 Reference value :  3.42837e-05
 Reference value :  3.44583e-05
 Reference value :  3.45000e-05
 Reference value :  3.45001e-05
 Reference value :  3.45002e-05
 Reference value :  3.45005e-05
 Reference value :  3.45013e-05
 Reference value :  3.45017e-05
 Reference value :  3.45027e-05
 Reference value :  3.45032e-05
 Reference value :  3.45044e-05
 Reference value :  3.45060e-05
 Reference value :  3.45072e-05
 Reference value :  3.45098e-05
 Reference value :  3.45125e-05
 Reference value :  3.45139e-05
 Reference value :  3.45171e-05
 Reference value :  3.45275e-05
 Reference value :  3.45795e-05
 Reference value :  3.47501e-05
 Reference value :  3.47502e-05
 Reference value :  3.47502e-05
 Reference value :  3.47504e-05
 Reference value :  3.47510e-05
 Reference value :  3.47520e-05
 Reference value :  3.47533e-05
 Reference value :  3.47538e-05
 Reference value :  3.47549e-05
 Reference value :  3.47570e-05
 Reference value :  3.47586e-05
 Reference value :  3.47629e-05
 Reference value :  3.47748e-05
 Reference value :  3.48110e-05
 Reference value :  3.49256e-05
 Reference value :  3.50000e-05
 Reference value :  3.50001e-05
 Reference value :  3.50002e-05
 Reference value :  3.50009e-05
 Reference value :  3.50023e-05
 Reference value :  3.50033e-05
 Reference value :  3.50046e-05
 Reference value :  3.50058e-05
 Reference value :  3.50073e-05
 Reference value :  3.50093e-05
 Reference value :  3.50115e-05
 Reference value :  3.50126e-05
 Reference value :  3.50135e-05
 Reference value :  3.50154e-05
 Reference value :  3.50174e-05
 Reference value :  3.50186e-05
 Reference value :  3.50217e-05
 Reference value :  3.50368e-05
 Reference value :  3.50807e-05
 Reference value :  3.51997e-05
 Reference value :  3.52501e-05
 Reference value :  3.52502e-05
 Reference value :  3.52502e-05
 Reference value :  3.52503e-05
 Reference value :  3.52507e-05
 Reference value :  3.52515e-05
 Reference value :  3.52525e-05
 Reference value :  3.52533e-05
 Reference value :  3.52538e-05
 Reference value :  3.52549e-05
 Reference value :  3.52564e-05
 Reference value :  3.52592e-05
 Reference value :  3.52651e-05
 Reference value :  3.53119e-05
 Reference value :  3.53654e-05
 Reference value :  3.55000e-05
 Reference value :  3.55001e-05
 Reference value :  3.55001e-05
 Reference value :  3.55002e-05
 Reference value :  3.55003e-05
 Reference value :  3.55009e-05
 Reference value :  3.55017e-05
 Reference value :  3.55027e-05
 Reference value :  3.55032e-05
 Reference value :  3.55044e-05
 Reference value :  3.55052e-05
 Reference value :  3.55067e-05
 Reference value :  3.55084e-05
 Reference value :  3.55103e-05
 Reference value :  3.55127e-05
 Reference value :  3.55248e-05
 Reference value :  3.55907e-05
 Reference value :  3.57501e-05
 Reference value :  3.57502e-05
 Reference value :  3.57502e-05
 Reference value :  3.57503e-05
 Reference value :  3.57507e-05
 Reference value :  3.57515e-05
 Reference value :  3.57525e-05
 Reference value :  3.57538e-05
 Reference value :  3.57549e-05
 Reference value :  3.57563e-05
 Reference value :  3.57579e-05
 Reference value :  3.57616e-05
 Reference value :  3.57815e-05
 Reference value :  3.58670e-05
 Reference value :  3.60000e-05
 Reference value :  3.60007e-05
 Reference value :  3.60028e-05
 Reference value :  3.60041e-05
 Reference value :  3.60046e-05
 Reference value :  3.60057e-05
 Reference value :  3.60077e-05
 Reference value :  3.60097e-05
 Reference value :  3.60116e-05
 Reference value :  3.60135e-05
 Reference value :  3.60153e-05
 Reference value :  3.60172e-05
 Reference value :  3.60194e-05
 Reference value :  3.60228e-05
 Reference value :  3.60385e-05
 Reference value :  3.60762e-05
 Reference value :  3.61699e-05
 Reference value :  3.62501e-05
 Reference value :  3.62502e-05
 Reference value :  3.62502e-05
 Reference value :  3.62503e-05
 Reference value :  3.62504e-05
 Reference value :  3.62510e-05
 Reference value :  3.62515e-05
 Reference value :  3.62525e-05
 Reference value :  3.62533e-05
 Reference value :  3.62538e-05
 Reference value :  3.62549e-05
 Reference value :  3.62564e-05
 Reference value :  3.62592e-05
 Reference value :  3.62719e-05
 Reference value :  3.63656e-05
 Reference value :  3.65000e-05
 Reference value :  3.65001e-05
 Reference value :  3.65001e-05
 Reference value :  3.65003e-05
 Reference value :  3.65009e-05
 Reference value :  3.65017e-05
 Reference value :  3.65032e-05
 Reference value :  3.65044e-05
 Reference value :  3.65060e-05
 Reference value :  3.65075e-05
 Reference value :  3.65094e-05
 Reference value :  3.65114e-05
 Reference value :  3.65248e-05
 Reference value :  3.65915e-05
 Reference value :  3.67501e-05
 Reference value :  3.67502e-05
 Reference value :  3.67504e-05
 Reference value :  3.67515e-05
 Reference value :  3.67525e-05
 Reference value :  3.67538e-05
 Reference value :  3.67549e-05
 Reference value :  3.67563e-05
 Reference value :  3.67589e-05
 Reference value :  3.67640e-05
 Reference value :  3.67957e-05
 Reference value :  3.69588e-05
 Reference value :  3.70000e-05
 Reference value :  3.70001e-05
 Reference value :  3.70003e-05
 Reference value :  3.70013e-05
 Reference value :  3.70028e-05
 Reference value :  3.70039e-05
 Reference value :  3.70058e-05
 Reference value :  3.70082e-05
 Reference value :  3.70104e-05
 Reference value :  3.70126e-05
 Reference value :  3.70143e-05
 Reference value :  3.70164e-05
 Reference value :  3.70186e-05
 Reference value :  3.70232e-05
 Reference value :  3.70398e-05
 Reference value :  3.70888e-05
 Reference value :  3.71028e-05
 Reference value :  3.71204e-05
 Reference value :  3.71661e-05
 Reference value :  3.72408e-05
 Reference value :  3.72502e-05
 Reference value :  3.72503e-05
 Reference value :  3.72507e-05
 Reference value :  3.72515e-05
 Reference value :  3.72532e-05
 Reference value :  3.72544e-05
 Reference value :  3.72556e-05
 Reference value :  3.72619e-05
 Reference value :  3.73147e-05
 Reference value :  3.75000e-05
 Reference value :  3.75001e-05
 Reference value :  3.75002e-05
 Reference value :  3.75009e-05
 Reference value :  3.75023e-05
 Reference value :  3.75033e-05
 Reference value :  3.75055e-05
 Reference value :  3.75072e-05
 Reference value :  3.75089e-05
 Reference value :  3.75109e-05
 Reference value :  3.75276e-05
 Reference value :  3.77501e-05
 Reference value :  3.77502e-05
 Reference value :  3.77503e-05
 Reference value :  3.77507e-05
 Reference value :  3.77515e-05
 Reference value :  3.77525e-05
 Reference value :  3.77538e-05
 Reference value :  3.77549e-05
 Reference value :  3.77563e-05
 Reference value :  3.77609e-05
 Reference value :  3.77813e-05
 Reference value :  3.79421e-05
 Reference value :  3.80001e-05
 Reference value :  3.80001e-05
 Reference value :  3.80003e-05
 Reference value :  3.80013e-05
 Reference value :  3.80028e-05
 Reference value :  3.80039e-05
 Reference value :  3.80058e-05
 Reference value :  3.80084e-05
 Reference value :  3.80098e-05
 Reference value :  3.80128e-05
 Reference value :  3.80150e-05
 Reference value :  3.80172e-05
 Reference value :  3.80214e-05
 Reference value :  3.80385e-05
 Reference value :  3.80536e-05
 Reference value :  3.80673e-05
 Reference value :  3.80802e-05
 Reference value :  3.80931e-05
 Reference value :  3.81306e-05
 Reference value :  3.82501e-05
 Reference value :  3.82502e-05
 Reference value :  3.82502e-05
 Reference value :  3.82504e-05
 Reference value :  3.82515e-05
 Reference value :  3.82533e-05
 Reference value :  3.82543e-05
 Reference value :  3.82556e-05
 Reference value :  3.82592e-05
 Reference value :  3.82847e-05
 Reference value :  3.85000e-05
 Reference value :  3.85006e-05
 Reference value :  3.85023e-05
 Reference value :  3.85034e-05
 Reference value :  3.85047e-05
 Reference value :  3.85065e-05
 Reference value :  3.85085e-05
 Reference value :  3.85118e-05
 Reference value :  3.85189e-05
 Reference value :  3.85978e-05
 Reference value :  3.87501e-05
 Reference value :  3.87502e-05
 Reference value :  3.87503e-05
 Reference value :  3.87510e-05
 Reference value :  3.87520e-05
 Reference value :  3.87532e-05
 Reference value :  3.87544e-05
 Reference value :  3.87555e-05
 Reference value :  3.87562e-05
 Reference value :  3.87589e-05
 Reference value :  3.87639e-05
 Reference value :  3.87808e-05
 Reference value :  3.89416e-05
 Reference value :  3.90000e-05
 Reference value :  3.90001e-05
 Reference value :  3.90002e-05
 Reference value :  3.90009e-05
 Reference value :  3.90023e-05
 Reference value :  3.90033e-05
 Reference value :  3.90046e-05
 Reference value :  3.90058e-05
 Reference value :  3.90082e-05
 Reference value :  3.90104e-05
 Reference value :  3.90126e-05
 Reference value :  3.90144e-05
 Reference value :  3.90164e-05
 Reference value :  3.90188e-05
 Reference value :  3.90245e-05
 Reference value :  3.90513e-05
 Reference value :  3.90688e-05
 Reference value :  3.91109e-05
 Reference value :  3.91506e-05
 Reference value :  3.92501e-05
 Reference value :  3.92502e-05
 Reference value :  3.92503e-05
 Reference value :  3.92507e-05
 Reference value :  3.92515e-05
 Reference value :  3.92532e-05
 Reference value :  3.92544e-05
 Reference value :  3.92556e-05
 Reference value :  3.92592e-05
 Reference value :  3.92852e-05
 Reference value :  3.95000e-05
 Reference value :  3.95001e-05
 Reference value :  3.95001e-05
 Reference value :  3.95003e-05
 Reference value :  3.95013e-05
 Reference value :  3.95027e-05
 Reference value :  3.95038e-05
 Reference value :  3.95052e-05
 Reference value :  3.95067e-05
 Reference value :  3.95084e-05
 Reference value :  3.95103e-05
 Reference value :  3.95127e-05
 Reference value :  3.95356e-05
 Reference value :  3.97501e-05
 Reference value :  3.97502e-05
 Reference value :  3.97502e-05
 Reference value :  3.97504e-05
 Reference value :  3.97515e-05
 Reference value :  3.97525e-05
 Reference value :  3.97538e-05
 Reference value :  3.97549e-05
 Reference value :  3.97563e-05
 Reference value :  3.97579e-05
 Reference value :  3.97617e-05
 Reference value :  3.97815e-05
 Reference value :  3.99598e-05
 Reference value :  4.00000e-05
 Reference value :  4.00001e-05
 Reference value :  4.00003e-05
 Reference value :  4.00013e-05
 Reference value :  4.00028e-05
 Reference value :  4.00039e-05
 Reference value :  4.00058e-05
 Reference value :  4.00082e-05
 Reference value :  4.00104e-05
 Reference value :  4.00126e-05
 Reference value :  4.00143e-05
 Reference value :  4.00174e-05
 Reference value :  4.00213e-05
 Reference value :  4.00296e-05
 Reference value :  4.00419e-05
 Reference value :  4.00510e-05
 Reference value :  4.00663e-05
 Reference value :  4.01429e-05
 Reference value :  4.02501e-05
 Reference value :  4.02502e-05
 Reference value :  4.02507e-05
 Reference value :  4.02515e-05
 Reference value :  4.02532e-05
 Reference value :  4.02544e-05
 Reference value :  4.02556e-05
 Reference value :  4.02593e-05
 Reference value :  4.02865e-05
 Reference value :  4.05000e-05
 Reference value :  4.05001e-05
 Reference value :  4.05002e-05
 Reference value :  4.05009e-05
 Reference value :  4.05023e-05
 Reference value :  4.05033e-05
 Reference value :  4.05055e-05
 Reference value :  4.05072e-05
 Reference value :  4.05089e-05
 Reference value :  4.05120e-05
 Reference value :  4.05454e-05
 Reference value :  4.07501e-05
 Reference value :  4.07502e-05
 Reference value :  4.07503e-05
 Reference value :  4.07507e-05
 Reference value :  4.07515e-05
 Reference value :  4.07532e-05
 Reference value :  4.07538e-05
 Reference value :  4.07549e-05
 Reference value :  4.07563e-05
 Reference value :  4.07641e-05
 Reference value :  4.08500e-05
 Reference value :  4.10011e-05
 Reference value :  4.10043e-05
 Reference value :  4.10063e-05
 Reference value :  4.10091e-05
 Reference value :  4.10120e-05
 Reference value :  4.10146e-05
 Reference value :  4.10181e-05
 Reference value :  4.10226e-05
 Reference value :  4.10441e-05
 Reference value :  4.12501e-05
 Reference value :  4.12502e-05
 Reference value :  4.12503e-05
 Reference value :  4.12510e-05
 Reference value :  4.12520e-05
 Reference value :  4.12537e-05
 Reference value :  4.12548e-05
 Reference value :  4.12563e-05
 Reference value :  4.12610e-05
 Reference value :  4.13084e-05
 Reference value :  4.15000e-05
 Reference value :  4.15001e-05
 Reference value :  4.15002e-05
 Reference value :  4.15009e-05
 Reference value :  4.15023e-05
 Reference value :  4.15033e-05
 Reference value :  4.15055e-05
 Reference value :  4.15072e-05
 Reference value :  4.15089e-05
 Reference value :  4.15109e-05
 Reference value :  4.15187e-05
 Reference value :  4.16524e-05
 Reference value :  4.17501e-05
 Reference value :  4.17502e-05
 Reference value :  4.17503e-05
 Reference value :  4.17510e-05
 Reference value :  4.17520e-05
 Reference value :  4.17532e-05
 Reference value :  4.17544e-05
 Reference value :  4.17549e-05
 Reference value :  4.17563e-05
 Reference value :  4.17609e-05
 Reference value :  4.18042e-05
 Reference value :  4.20000e-05
 Reference value :  4.20001e-05
 Reference value :  4.20001e-05
 Reference value :  4.20002e-05
 Reference value :  4.20009e-05
 Reference value :  4.20023e-05
 Reference value :  4.20033e-05
 Reference value :  4.20045e-05
 Reference value :  4.20058e-05
 Reference value :  4.20075e-05
 Reference value :  4.20103e-05
 Reference value :  4.20256e-05
 Reference value :  4.22501e-05
 Reference value :  4.22502e-05
 Reference value :  4.22502e-05
 Reference value :  4.22504e-05
 Reference value :  4.22515e-05
 Reference value :  4.22532e-05
 Reference value :  4.22560e-05
 Reference value :  4.22602e-05
 Reference value :  4.23347e-05
 Reference value :  4.25001e-05
 Reference value :  4.25002e-05
 Reference value :  4.25009e-05
 Reference value :  4.25024e-05
 Reference value :  4.25036e-05
 Reference value :  4.25056e-05
 Reference value :  4.25103e-05
 Reference value :  4.25262e-05
 Reference value :  4.25305e-05
 Reference value :  4.25365e-05
 Reference value :  4.25411e-05
 Reference value :  4.25462e-05
 Reference value :  4.25578e-05
 Reference value :  4.25709e-05
 Reference value :  4.25811e-05
 Reference value :  4.25992e-05
 Reference value :  4.26533e-05
 Reference value :  4.27501e-05
 Reference value :  4.27502e-05
 Reference value :  4.27504e-05
 Reference value :  4.27515e-05
 Reference value :  4.27532e-05
 Reference value :  4.27543e-05
 Reference value :  4.27563e-05
 Reference value :  4.27650e-05
 Reference value :  4.28585e-05
 Reference value :  4.30000e-05
 Reference value :  4.30001e-05
 Reference value :  4.30003e-05
 Reference value :  4.30013e-05
 Reference value :  4.30027e-05
 Reference value :  4.30044e-05
 Reference value :  4.30072e-05
 Reference value :  4.30098e-05
 Reference value :  4.30125e-05
 Reference value :  4.30171e-05
 Reference value :  4.30502e-05
 Reference value :  4.32501e-05
 Reference value :  4.32502e-05
 Reference value :  4.32507e-05
 Reference value :  4.32520e-05
 Reference value :  4.32538e-05
 Reference value :  4.32549e-05
 Reference value :  4.32570e-05
 Reference value :  4.32586e-05
 Reference value :  4.32629e-05
 Reference value :  4.32827e-05
 Reference value :  4.33718e-05
 Reference value :  4.35013e-05
 Reference value :  4.35054e-05
 Reference value :  4.35079e-05
 Reference value :  4.35115e-05
 Reference value :  4.35163e-05
 Reference value :  4.35197e-05
 Reference value :  4.35387e-05
 Reference value :  4.36852e-05
 Reference value :  4.37502e-05
 Reference value :  4.37503e-05
 Reference value :  4.37507e-05
 Reference value :  4.37515e-05
 Reference value :  4.37532e-05
 Reference value :  4.37543e-05
 Reference value :  4.37554e-05
 Reference value :  4.37590e-05
 Reference value :  4.37841e-05
 Reference value :  4.39667e-05
 Reference value :  4.40000e-05
 Reference value :  4.40001e-05
 Reference value :  4.40002e-05
 Reference value :  4.40009e-05
 Reference value :  4.40017e-05
 Reference value :  4.40032e-05
 Reference value :  4.40052e-05
 Reference value :  4.40067e-05
 Reference value :  4.40084e-05
 Reference value :  4.40114e-05
 Reference value :  4.40249e-05
 Reference value :  4.41686e-05
 Reference value :  4.42501e-05
 Reference value :  4.42502e-05
 Reference value :  4.42504e-05
 Reference value :  4.42515e-05
 Reference value :  4.42533e-05
 Reference value :  4.42544e-05
 Reference value :  4.42563e-05
 Reference value :  4.42589e-05
 Reference value :  4.42640e-05
 Reference value :  4.43192e-05
 Reference value :  4.45000e-05
 Reference value :  4.45001e-05
 Reference value :  4.45009e-05
 Reference value :  4.45028e-05
 Reference value :  4.45039e-05
 Reference value :  4.45058e-05
 Reference value :  4.45082e-05
 Reference value :  4.45115e-05
 Reference value :  4.45135e-05
 Reference value :  4.45154e-05
 Reference value :  4.45186e-05
 Reference value :  4.45366e-05
 Reference value :  4.46674e-05
 Reference value :  4.47502e-05
 Reference value :  4.47503e-05
 Reference value :  4.47507e-05
 Reference value :  4.47515e-05
 Reference value :  4.47533e-05
 Reference value :  4.47544e-05
 Reference value :  4.47564e-05
 Reference value :  4.47651e-05
 Reference value :  4.48654e-05
 Reference value :  4.50000e-05
 Reference value :  4.50001e-05
 Reference value :  4.50005e-05
 Reference value :  4.50013e-05
 Reference value :  4.50022e-05
 Reference value :  4.50038e-05
 Reference value :  4.50060e-05
 Reference value :  4.50084e-05
 Reference value :  4.50127e-05
 Reference value :  4.51642e-05
 Reference value :  4.52502e-05
 Reference value :  4.52503e-05
 Reference value :  4.52507e-05
 Reference value :  4.52515e-05
 Reference value :  4.52525e-05
 Reference value :  4.52538e-05
 Reference value :  4.52549e-05
 Reference value :  4.52563e-05
 Reference value :  4.52589e-05
 Reference value :  4.52641e-05
 Reference value :  4.52815e-05
 Reference value :  4.53670e-05
 Reference value :  4.55000e-05
 Reference value :  4.55001e-05
 Reference value :  4.55002e-05
 Reference value :  4.55009e-05
 Reference value :  4.55023e-05
 Reference value :  4.55033e-05
 Reference value :  4.55046e-05
 Reference value :  4.55058e-05
 Reference value :  4.55082e-05
 Reference value :  4.55104e-05
 Reference value :  4.55126e-05
 Reference value :  4.55143e-05
 Reference value :  4.55174e-05
 Reference value :  4.55214e-05
 Reference value :  4.55399e-05
 Reference value :  4.55898e-05
 Reference value :  4.56026e-05
 Reference value :  4.56082e-05
 Reference value :  4.56194e-05
 Reference value :  4.56602e-05
 Reference value :  4.57130e-05
 Reference value :  4.57501e-05
 Reference value :  4.57502e-05
 Reference value :  4.57503e-05
 Reference value :  4.57510e-05
 Reference value :  4.57520e-05
 Reference value :  4.57532e-05
 Reference value :  4.57538e-05
 Reference value :  4.57550e-05
 Reference value :  4.57577e-05
 Reference value :  4.57724e-05
 Reference value :  4.59836e-05
 Reference value :  4.60003e-05
 Reference value :  4.60015e-05
 Reference value :  4.60033e-05
 Reference value :  4.60045e-05
 Reference value :  4.60065e-05
 Reference value :  4.60084e-05
 Reference value :  4.60104e-05
 Reference value :  4.60154e-05
 Reference value :  4.60518e-05
 Reference value :  4.62501e-05
 Reference value :  4.62502e-05
 Reference value :  4.62503e-05
 Reference value :  4.62510e-05
 Reference value :  4.62520e-05
 Reference value :  4.62532e-05
 Reference value :  4.62538e-05
 Reference value :  4.62549e-05
 Reference value :  4.62563e-05
 Reference value :  4.62608e-05
 Reference value :  4.63038e-05
 Reference value :  4.65000e-05
 Reference value :  4.65001e-05
 Reference value :  4.65001e-05
 Reference value :  4.65002e-05
 Reference value :  4.65005e-05
 Reference value :  4.65013e-05
 Reference value :  4.65023e-05
 Reference value :  4.65033e-05
 Reference value :  4.65045e-05
 Reference value :  4.65058e-05
 Reference value :  4.65075e-05
 Reference value :  4.65098e-05
 Reference value :  4.65128e-05
 Reference value :  4.65150e-05
 Reference value :  4.65172e-05
 Reference value :  4.65214e-05
 Reference value :  4.65386e-05
 Reference value :  4.65593e-05
 Reference value :  4.65739e-05
 Reference value :  4.65937e-05
 Reference value :  4.66525e-05
 Reference value :  4.67501e-05
 Reference value :  4.67502e-05
 Reference value :  4.67503e-05
 Reference value :  4.67510e-05
 Reference value :  4.67520e-05
 Reference value :  4.67533e-05
 Reference value :  4.67543e-05
 Reference value :  4.67556e-05
 Reference value :  4.67620e-05
 Reference value :  4.68106e-05
 Reference value :  4.70000e-05
 Reference value :  4.70001e-05
 Reference value :  4.70002e-05
 Reference value :  4.70005e-05
 Reference value :  4.70013e-05
 Reference value :  4.70022e-05
 Reference value :  4.70032e-05
 Reference value :  4.70052e-05
 Reference value :  4.70067e-05
 Reference value :  4.70084e-05
 Reference value :  4.70103e-05
 Reference value :  4.70115e-05
 Reference value :  4.70185e-05
 Reference value :  4.70539e-05
 Reference value :  4.72501e-05
 Reference value :  4.72501e-05
 Reference value :  4.72502e-05
 Reference value :  4.72503e-05
 Reference value :  4.72504e-05
 Reference value :  4.72510e-05
 Reference value :  4.72520e-05
 Reference value :  4.72533e-05
 Reference value :  4.72538e-05
 Reference value :  4.72549e-05
 Reference value :  4.72563e-05
 Reference value :  4.72589e-05
 Reference value :  4.72641e-05
 Reference value :  4.72958e-05
 Reference value :  4.75000e-05
 Reference value :  4.75001e-05
 Reference value :  4.75001e-05
 Reference value :  4.75002e-05
 Reference value :  4.75005e-05
 Reference value :  4.75013e-05
 Reference value :  4.75023e-05
 Reference value :  4.75028e-05
 Reference value :  4.75033e-05
 Reference value :  4.75046e-05
 Reference value :  4.75058e-05
 Reference value :  4.75073e-05
[...]
 Reference value :  2.60796e-04
 Reference value :  2.60960e-04
 Reference value :  2.61000e-04
 Reference value :  2.61000e-04
 Reference value :  2.61000e-04
 Reference value :  2.61000e-04
 Reference value :  2.61001e-04
 Reference value :  2.61002e-04
 Reference value :  2.61003e-04
 Reference value :  2.61004e-04
 Reference value :  2.61005e-04
 Reference value :  2.61006e-04
 Reference value :  2.61007e-04
 Reference value :  2.61009e-04
 Reference value :  2.61011e-04
 Reference value :  2.61013e-04
 Reference value :  2.61013e-04
 Reference value :  2.61015e-04
 Reference value :  2.61018e-04
 Reference value :  2.61020e-04
 Reference value :  2.61029e-04
 Reference value :  2.61047e-04
 Reference value :  2.61163e-04
 Reference value :  2.61250e-04
 Reference value :  2.61250e-04
 Reference value :  2.61250e-04
 Reference value :  2.61251e-04
 Reference value :  2.61252e-04
 Reference value :  2.61253e-04
 Reference value :  2.61254e-04
 Reference value :  2.61255e-04
 Reference value :  2.61256e-04
 Reference value :  2.61259e-04
 Reference value :  2.61272e-04
 Reference value :  2.61365e-04
 Reference value :  2.61500e-04
 Reference value :  2.61500e-04
 Reference value :  2.61500e-04
 Reference value :  2.61500e-04
 Reference value :  2.61500e-04
 Reference value :  2.61501e-04
 Reference value :  2.61502e-04
 Reference value :  2.61503e-04
 Reference value :  2.61503e-04
 Reference value :  2.61504e-04
 Reference value :  2.61505e-04
 Reference value :  2.61507e-04
 Reference value :  2.61508e-04
 Reference value :  2.61510e-04
 Reference value :  2.61511e-04
 Reference value :  2.61515e-04
 Reference value :  2.61536e-04
 Reference value :  2.61591e-04
 Reference value :  2.61750e-04
 Reference value :  2.61750e-04
 Reference value :  2.61750e-04
 Reference value :  2.61750e-04
 Reference value :  2.61750e-04
 Reference value :  2.61751e-04
 Reference value :  2.61752e-04
 Reference value :  2.61753e-04
 Reference value :  2.61754e-04
 Reference value :  2.61755e-04
 Reference value :  2.61756e-04
 Reference value :  2.61759e-04
 Reference value :  2.61764e-04
 Reference value :  2.61796e-04
 Reference value :  2.62000e-04
 Reference value :  2.62000e-04
 Reference value :  2.62000e-04
 Reference value :  2.62000e-04
 Reference value :  2.62001e-04
 Reference value :  2.62002e-04
 Reference value :  2.62003e-04
 Reference value :  2.62005e-04
 Reference value :  2.62006e-04
 Reference value :  2.62007e-04
 Reference value :  2.62010e-04
 Reference value :  2.62013e-04
 Reference value :  2.62013e-04
 Reference value :  2.62015e-04
 Reference value :  2.62017e-04
 Reference value :  2.62020e-04
 Reference value :  2.62029e-04
 Reference value :  2.62060e-04
 Reference value :  2.62121e-04
 Reference value :  2.62143e-04
 Reference value :  2.62235e-04
 Reference value :  2.62250e-04
 Reference value :  2.62250e-04
 Reference value :  2.62250e-04
 Reference value :  2.62251e-04
 Reference value :  2.62253e-04
 Reference value :  2.62254e-04
 Reference value :  2.62255e-04
 Reference value :  2.62256e-04
 Reference value :  2.62262e-04
 Reference value :  2.62286e-04
 Reference value :  2.62483e-04
 Reference value :  2.62500e-04
 Reference value :  2.62500e-04
 Reference value :  2.62500e-04
 Reference value :  2.62500e-04
 Reference value :  2.62501e-04
 Reference value :  2.62502e-04
 Reference value :  2.62503e-04
 Reference value :  2.62503e-04
 Reference value :  2.62505e-04
 Reference value :  2.62506e-04
 Reference value :  2.62507e-04
 Reference value :  2.62509e-04
 Reference value :  2.62511e-04
 Reference value :  2.62519e-04
 Reference value :  2.62581e-04
 Reference value :  2.62750e-04
 Reference value :  2.62750e-04
 Reference value :  2.62750e-04
 Reference value :  2.62750e-04
 Reference value :  2.62751e-04
 Reference value :  2.62751e-04
 Reference value :  2.62753e-04
 Reference value :  2.62754e-04
 Reference value :  2.62755e-04
 Reference value :  2.62756e-04
 Reference value :  2.62759e-04
 Reference value :  2.62781e-04
 Reference value :  2.62942e-04
 Reference value :  2.63000e-04
 Reference value :  2.63000e-04
 Reference value :  2.63000e-04
 Reference value :  2.63001e-04
 Reference value :  2.63002e-04
 Reference value :  2.63003e-04
 Reference value :  2.63005e-04
 Reference value :  2.63006e-04
 Reference value :  2.63008e-04
 Reference value :  2.63010e-04
 Reference value :  2.63026e-04
 Reference value :  2.63132e-04
 Reference value :  2.63250e-04
 Reference value :  2.63250e-04
 Reference value :  2.63250e-04
 Reference value :  2.63251e-04
 Reference value :  2.63252e-04
 Reference value :  2.63253e-04
 Reference value :  2.63254e-04
 Reference value :  2.63256e-04
 Reference value :  2.63259e-04
 Reference value :  2.63268e-04
 Reference value :  2.63335e-04
 Reference value :  2.63500e-04
 Reference value :  2.63500e-04
 Reference value :  2.63500e-04
 Reference value :  2.63501e-04
 Reference value :  2.63501e-04
 Reference value :  2.63502e-04
 Reference value :  2.63504e-04
 Reference value :  2.63505e-04
 Reference value :  2.63506e-04
 Reference value :  2.63510e-04
 Reference value :  2.63526e-04
 Reference value :  2.63531e-04
 Reference value :  2.63536e-04
 Reference value :  2.63538e-04
 Reference value :  2.63541e-04
 Reference value :  2.63543e-04
 Reference value :  2.63552e-04
 Reference value :  2.63565e-04
 Reference value :  2.63589e-04
 Reference value :  2.63645e-04
 Reference value :  2.63696e-04
 Reference value :  2.63705e-04
 Reference value :  2.63715e-04
 Reference value :  2.63723e-04
 Reference value :  2.63739e-04
 Reference value :  2.63750e-04
 Reference value :  2.63750e-04
 Reference value :  2.63750e-04
 Reference value :  2.63750e-04
 Reference value :  2.63751e-04
 Reference value :  2.63752e-04
 Reference value :  2.63753e-04
 Reference value :  2.63754e-04
 Reference value :  2.63755e-04
 Reference value :  2.63758e-04
 Reference value :  2.63765e-04
 Reference value :  2.63858e-04
 Reference value :  2.64000e-04
 Reference value :  2.64000e-04
 Reference value :  2.64000e-04
 Reference value :  2.64001e-04
 Reference value :  2.64001e-04
 Reference value :  2.64002e-04
 Reference value :  2.64003e-04
 Reference value :  2.64004e-04
 Reference value :  2.64006e-04
 Reference value :  2.64007e-04
 Reference value :  2.64010e-04
 Reference value :  2.64012e-04
 Reference value :  2.64014e-04
 Reference value :  2.64017e-04
 Reference value :  2.64028e-04
 Reference value :  2.64050e-04
 Reference value :  2.64250e-04
 Reference value :  2.64250e-04
 Reference value :  2.64250e-04
 Reference value :  2.64250e-04
 Reference value :  2.64251e-04
 Reference value :  2.64252e-04
 Reference value :  2.64253e-04
 Reference value :  2.64254e-04
 Reference value :  2.64256e-04
 Reference value :  2.64257e-04
 Reference value :  2.64259e-04
 Reference value :  2.64263e-04
 Reference value :  2.64275e-04
 Reference value :  2.64336e-04
 Reference value :  2.64500e-04
 Reference value :  2.64500e-04
 Reference value :  2.64500e-04
 Reference value :  2.64500e-04
 Reference value :  2.64501e-04
 Reference value :  2.64502e-04
 Reference value :  2.64503e-04
 Reference value :  2.64503e-04
 Reference value :  2.64505e-04
 Reference value :  2.64506e-04
 Reference value :  2.64507e-04
 Reference value :  2.64509e-04
 Reference value :  2.64511e-04
 Reference value :  2.64514e-04
 Reference value :  2.64515e-04
 Reference value :  2.64517e-04
 Reference value :  2.64519e-04
 Reference value :  2.64522e-04
 Reference value :  2.64537e-04
 Reference value :  2.64639e-04
 Reference value :  2.64750e-04
 Reference value :  2.64750e-04
 Reference value :  2.64750e-04
 Reference value :  2.64750e-04
 Reference value :  2.64751e-04
 Reference value :  2.64752e-04
 Reference value :  2.64753e-04
 Reference value :  2.64753e-04
 Reference value :  2.64754e-04
 Reference value :  2.64755e-04
 Reference value :  2.64756e-04
 Reference value :  2.64759e-04
 Reference value :  2.64765e-04
 Reference value :  2.64812e-04
 Reference value :  2.65000e-04
 Reference value :  2.65000e-04
 Reference value :  2.65000e-04
 Reference value :  2.65000e-04
 Reference value :  2.65000e-04
 Reference value :  2.65001e-04
 Reference value :  2.65002e-04
 Reference value :  2.65003e-04
 Reference value :  2.65003e-04
 Reference value :  2.65004e-04
 Reference value :  2.65005e-04
 Reference value :  2.65007e-04
 Reference value :  2.65008e-04
 Reference value :  2.65010e-04
 Reference value :  2.65011e-04
 Reference value :  2.65025e-04
 Reference value :  2.65164e-04
 Reference value :  2.65250e-04
 Reference value :  2.65250e-04
 Reference value :  2.65250e-04
 Reference value :  2.65251e-04
 Reference value :  2.65252e-04
 Reference value :  2.65253e-04
 Reference value :  2.65254e-04
 Reference value :  2.65255e-04
 Reference value :  2.65256e-04
 Reference value :  2.65259e-04
 Reference value :  2.65264e-04
 Reference value :  2.65281e-04
 Reference value :  2.65367e-04
 Reference value :  2.65500e-04
 Reference value :  2.65500e-04
 Reference value :  2.65500e-04
 Reference value :  2.65501e-04
 Reference value :  2.65502e-04
 Reference value :  2.65503e-04
 Reference value :  2.65505e-04
 Reference value :  2.65506e-04
 Reference value :  2.65509e-04
 Reference value :  2.65511e-04
 Reference value :  2.65514e-04
 Reference value :  2.65516e-04
 Reference value :  2.65519e-04
 Reference value :  2.65521e-04
 Reference value :  2.65532e-04
 Reference value :  2.65582e-04
 Reference value :  2.65627e-04
 Reference value :  2.65644e-04
 Reference value :  2.65652e-04
 Reference value :  2.65667e-04
 Reference value :  2.65687e-04
 Reference value :  2.65750e-04
 Reference value :  2.65750e-04
 Reference value :  2.65750e-04
 Reference value :  2.65750e-04
 Reference value :  2.65751e-04
 Reference value :  2.65752e-04
 Reference value :  2.65753e-04
 Reference value :  2.65754e-04
 Reference value :  2.65755e-04
 Reference value :  2.65758e-04
 Reference value :  2.65765e-04
 Reference value :  2.65815e-04
 Reference value :  2.66000e-04
 Reference value :  2.66000e-04
 Reference value :  2.66000e-04
 Reference value :  2.66000e-04
 Reference value :  2.66001e-04
 Reference value :  2.66003e-04
 Reference value :  2.66004e-04
 Reference value :  2.66006e-04
 Reference value :  2.66008e-04
 Reference value :  2.66010e-04
 Reference value :  2.66012e-04
 Reference value :  2.66028e-04
 Reference value :  2.66152e-04
 Reference value :  2.66250e-04
 Reference value :  2.66250e-04
 Reference value :  2.66250e-04
 Reference value :  2.66251e-04
 Reference value :  2.66252e-04
 Reference value :  2.66253e-04
 Reference value :  2.66254e-04
 Reference value :  2.66255e-04
 Reference value :  2.66256e-04
 Reference value :  2.66261e-04
 Reference value :  2.66281e-04
 Reference value :  2.66442e-04
 Reference value :  2.66500e-04
 Reference value :  2.66500e-04
 Reference value :  2.66500e-04
 Reference value :  2.66501e-04
 Reference value :  2.66501e-04
 Reference value :  2.66503e-04
 Reference value :  2.66504e-04
 Reference value :  2.66505e-04
 Reference value :  2.66507e-04
 Reference value :  2.66510e-04
 Reference value :  2.66513e-04
 Reference value :  2.66514e-04
 Reference value :  2.66516e-04
 Reference value :  2.66517e-04
 Reference value :  2.66519e-04
 Reference value :  2.66527e-04
 Reference value :  2.66539e-04
 Reference value :  2.66549e-04
 Reference value :  2.66567e-04
 Reference value :  2.66575e-04
 Reference value :  2.66582e-04
 Reference value :  2.66595e-04
 Reference value :  2.66642e-04
 Reference value :  2.66750e-04
 Reference value :  2.66750e-04
 Reference value :  2.66750e-04
 Reference value :  2.66750e-04
 Reference value :  2.66751e-04
 Reference value :  2.66752e-04
 Reference value :  2.66753e-04
 Reference value :  2.66754e-04
 Reference value :  2.66755e-04
 Reference value :  2.66758e-04
 Reference value :  2.66765e-04
 Reference value :  2.66811e-04
 Reference value :  2.67000e-04
 Reference value :  2.67000e-04
 Reference value :  2.67000e-04
 Reference value :  2.67000e-04
 Reference value :  2.67001e-04
 Reference value :  2.67001e-04
 Reference value :  2.67002e-04
 Reference value :  2.67003e-04
 Reference value :  2.67003e-04
 Reference value :  2.67004e-04
 Reference value :  2.67005e-04
 Reference value :  2.67007e-04
 Reference value :  2.67008e-04
 Reference value :  2.67010e-04
 Reference value :  2.67011e-04
 Reference value :  2.67015e-04
 Reference value :  2.67025e-04
 Reference value :  2.67054e-04
 Reference value :  2.67250e-04
 Reference value :  2.67250e-04
 Reference value :  2.67250e-04
 Reference value :  2.67250e-04
 Reference value :  2.67250e-04
 Reference value :  2.67251e-04
 Reference value :  2.67252e-04
 Reference value :  2.67253e-04
 Reference value :  2.67254e-04
 Reference value :  2.67255e-04
 Reference value :  2.67256e-04
 Reference value :  2.67259e-04
 Reference value :  2.67264e-04
 Reference value :  2.67281e-04
 Reference value :  2.67367e-04
 Reference value :  2.67500e-04
 Reference value :  2.67500e-04
 Reference value :  2.67500e-04
 Reference value :  2.67501e-04
 Reference value :  2.67501e-04
 Reference value :  2.67503e-04
 Reference value :  2.67504e-04
 Reference value :  2.67505e-04
 Reference value :  2.67506e-04
 Reference value :  2.67507e-04
 Reference value :  2.67509e-04
 Reference value :  2.67511e-04
 Reference value :  2.67513e-04
 Reference value :  2.67515e-04
 Reference value :  2.67517e-04
 Reference value :  2.67520e-04
 Reference value :  2.67523e-04
 Reference value :  2.67538e-04
 Reference value :  2.67552e-04
 Reference value :  2.67556e-04
 Reference value :  2.67564e-04
 Reference value :  2.67582e-04
 Reference value :  2.67627e-04
 Reference value :  2.67716e-04
 Reference value :  2.67750e-04
 Reference value :  2.67750e-04
 Reference value :  2.67750e-04
 Reference value :  2.67750e-04
 Reference value :  2.67752e-04
 Reference value :  2.67753e-04
 Reference value :  2.67754e-04
 Reference value :  2.67756e-04
 Reference value :  2.67759e-04
 Reference value :  2.67787e-04
 Reference value :  2.68000e-04
 Reference value :  2.68000e-04
 Reference value :  2.68000e-04
 Reference value :  2.68001e-04
 Reference value :  2.68002e-04
 Reference value :  2.68003e-04
 Reference value :  2.68005e-04
 Reference value :  2.68007e-04
 Reference value :  2.68009e-04
 Reference value :  2.68011e-04
 Reference value :  2.68028e-04
 Reference value :  2.68250e-04
 Reference value :  2.68250e-04
 Reference value :  2.68250e-04
 Reference value :  2.68251e-04
 Reference value :  2.68252e-04
 Reference value :  2.68253e-04
 Reference value :  2.68254e-04
 Reference value :  2.68255e-04
 Reference value :  2.68256e-04
 Reference value :  2.68264e-04
 Reference value :  2.68442e-04
 Reference value :  2.68500e-04
 Reference value :  2.68500e-04
 Reference value :  2.68502e-04
 Reference value :  2.68503e-04
 Reference value :  2.68505e-04
 Reference value :  2.68507e-04
 Reference value :  2.68510e-04
 Reference value :  2.68513e-04
 Reference value :  2.68514e-04
 Reference value :  2.68516e-04
 Reference value :  2.68518e-04
 Reference value :  2.68523e-04
 Reference value :  2.68539e-04
 Reference value :  2.68552e-04
 Reference value :  2.68564e-04
 Reference value :  2.68576e-04
 Reference value :  2.68597e-04
 Reference value :  2.68678e-04
 Reference value :  2.68750e-04
 Reference value :  2.68750e-04
 Reference value :  2.68750e-04
 Reference value :  2.68751e-04
 Reference value :  2.68752e-04
 Reference value :  2.68753e-04
 Reference value :  2.68754e-04
 Reference value :  2.68756e-04
 Reference value :  2.68762e-04
 Reference value :  2.68811e-04
 Reference value :  2.69000e-04
 Reference value :  2.69000e-04
 Reference value :  2.69000e-04
 Reference value :  2.69001e-04
 Reference value :  2.69002e-04
 Reference value :  2.69003e-04
 Reference value :  2.69004e-04
 Reference value :  2.69006e-04
 Reference value :  2.69007e-04
 Reference value :  2.69008e-04
 Reference value :  2.69011e-04
 Reference value :  2.69025e-04
 Reference value :  2.69091e-04
 Reference value :  2.69250e-04
 Reference value :  2.69250e-04
 Reference value :  2.69250e-04
 Reference value :  2.69250e-04
 Reference value :  2.69252e-04
 Reference value :  2.69253e-04
 Reference value :  2.69254e-04
 Reference value :  2.69255e-04
 Reference value :  2.69257e-04
 Reference value :  2.69260e-04
 Reference value :  2.69267e-04
 Reference value :  2.69296e-04
 Reference value :  2.69500e-04
 Reference value :  2.69500e-04
 Reference value :  2.69500e-04
 Reference value :  2.69501e-04
 Reference value :  2.69503e-04
 Reference value :  2.69505e-04
 Reference value :  2.69506e-04
 Reference value :  2.69510e-04
 Reference value :  2.69513e-04
 Reference value :  2.69518e-04
 Reference value :  2.69524e-04
 Reference value :  2.69547e-04
 Reference value :  2.69578e-04
 Reference value :  2.69600e-04
 Reference value :  2.69679e-04
 Reference value :  2.69750e-04
 Reference value :  2.69750e-04
 Reference value :  2.69750e-04
 Reference value :  2.69751e-04
 Reference value :  2.69753e-04
 Reference value :  2.69754e-04
 Reference value :  2.69756e-04
 Reference value :  2.69765e-04
 Reference value :  2.69983e-04
 Reference value :  2.70000e-04
 Reference value :  2.70000e-04
 Reference value :  2.70001e-04
 Reference value :  2.70003e-04
 Reference value :  2.70006e-04
 Reference value :  2.70009e-04
 Reference value :  2.70012e-04
 Reference value :  2.70045e-04
 Reference value :  2.70250e-04
 Reference value :  2.70250e-04
 Reference value :  2.70251e-04
 Reference value :  2.70253e-04
 Reference value :  2.70254e-04
 Reference value :  2.70256e-04
 Reference value :  2.70264e-04
 Reference value :  2.70350e-04
 Reference value :  2.70500e-04
 Reference value :  2.70500e-04
 Reference value :  2.70500e-04
 Reference value :  2.70501e-04
 Reference value :  2.70503e-04
 Reference value :  2.70504e-04
 Reference value :  2.70506e-04
 Reference value :  2.70508e-04
 Reference value :  2.70510e-04
 Reference value :  2.70513e-04
 Reference value :  2.70515e-04
 Reference value :  2.70517e-04
 Reference value :  2.70521e-04
 Reference value :  2.70536e-04
 Reference value :  2.70543e-04
 Reference value :  2.70559e-04
 Reference value :  2.70603e-04
 Reference value :  2.70710e-04
 Reference value :  2.70750e-04
 Reference value :  2.70750e-04
 Reference value :  2.70751e-04
 Reference value :  2.70751e-04
 Reference value :  2.70753e-04
 Reference value :  2.70754e-04
 Reference value :  2.70756e-04
 Reference value :  2.70759e-04
 Reference value :  2.70785e-04
 Reference value :  2.71000e-04
 Reference value :  2.71000e-04
 Reference value :  2.71000e-04
 Reference value :  2.71001e-04
 Reference value :  2.71002e-04
 Reference value :  2.71003e-04
 Reference value :  2.71005e-04
 Reference value :  2.71007e-04
 Reference value :  2.71008e-04
 Reference value :  2.71011e-04
 Reference value :  2.71025e-04
 Reference value :  2.71165e-04
 Reference value :  2.71250e-04
 Reference value :  2.71250e-04
 Reference value :  2.71250e-04
 Reference value :  2.71250e-04
 Reference value :  2.71251e-04
 Reference value :  2.71251e-04
 Reference value :  2.71253e-04
 Reference value :  2.71254e-04
 Reference value :  2.71256e-04
 Reference value :  2.71260e-04
 Reference value :  2.71273e-04
 Reference value :  2.71500e-04
 Reference value :  2.71500e-04
 Reference value :  2.71501e-04
 Reference value :  2.71503e-04
 Reference value :  2.71506e-04
 Reference value :  2.71509e-04
 Reference value :  2.71513e-04
 Reference value :  2.71520e-04
 Reference value :  2.71565e-04
 Reference value :  2.71595e-04
 Reference value :  2.71689e-04
 Reference value :  2.71750e-04
 Reference value :  2.71750e-04
 Reference value :  2.71752e-04
 Reference value :  2.71755e-04
 Reference value :  2.71760e-04
 Reference value :  2.71911e-04
No. of Data Rows : 39130
ngspice-44 done
