
Note: Compatibility modes selected: hs a


Circuit: ** sch_path: /home/audrey/cace/sar-adc-using-sky130-pdk/runs/run_2025-09-09_11-48-46/parameters/power/run_2/power_consumption.sch

option SCALE: Scale is set to 1e-06 for instance and model parameters
option SCALE: Scale is set to 1e-06 for instance and model parameters
option SCALE: Scale is set to 1e-06 for instance and model parameters
option SCALE: Scale is set to 1e-06 for instance and model parameters
Doing analysis at TEMP = 27.000000 and TNOM = 27.000000

Using KLU as Direct Linear Solver
 Reference value :  0.00000e+00
 Reference value :  1.00000e-12
 Reference value :  4.00000e-12
 Reference value :  1.60000e-11
 Reference value :  3.20000e-11
 Reference value :  6.40000e-11
 Reference value :  1.00000e-10
 Reference value :  1.06400e-10
 Reference value :  1.19200e-10
 Reference value :  1.44800e-10
 Reference value :  1.96000e-10
 Reference value :  2.98400e-10
 Reference value :  7.56992e-10
 Reference value :  1.04184e-09
 Reference value :  1.50319e-09
 Reference value :  1.91823e-09
 Reference value :  2.38921e-09
 Reference value :  2.86665e-09
 Reference value :  3.27907e-09
 Reference value :  3.75734e-09
 Reference value :  4.27921e-09
 Reference value :  4.77742e-09
 Reference value :  5.31436e-09
 Reference value :  6.02137e-09
 Reference value :  6.73533e-09
 Reference value :  7.58733e-09
 Reference value :  8.50066e-09
 Reference value :  1.05017e-08
 Reference value :  1.17367e-08
 Reference value :  1.30671e-08
 Reference value :  1.40005e-08
 Reference value :  1.48642e-08
 Reference value :  1.67732e-08
 Reference value :  1.80459e-08
 Reference value :  1.95664e-08
 Reference value :  2.14368e-08
 Reference value :  2.31990e-08
 Reference value :  2.46007e-08
 Reference value :  2.57365e-08
 Reference value :  2.65756e-08
 Reference value :  2.75290e-08
 Reference value :  3.06348e-08
 Reference value :  3.77753e-08
 Reference value :  4.87418e-08
 Reference value :  5.47176e-08
 Reference value :  6.32094e-08
 Reference value :  8.97640e-08
 Reference value :  1.16663e-07
 Reference value :  2.50100e-07
 Reference value :  2.50110e-07
 Reference value :  2.50170e-07
 Reference value :  2.50200e-07
 Reference value :  2.50220e-07
 Reference value :  2.50246e-07
 Reference value :  2.50300e-07
 Reference value :  2.50406e-07
 Reference value :  2.50519e-07
 Reference value :  2.50736e-07
 Reference value :  2.50957e-07
 Reference value :  2.51399e-07
 Reference value :  2.51897e-07
 Reference value :  2.52360e-07
 Reference value :  2.53016e-07
 Reference value :  2.53897e-07
 Reference value :  2.54507e-07
 Reference value :  2.55209e-07
 Reference value :  2.55952e-07
 Reference value :  2.56772e-07
 Reference value :  2.57725e-07
 Reference value :  2.60720e-07
 Reference value :  2.63519e-07
 Reference value :  2.74407e-07
 Reference value :  3.05074e-07
 Reference value :  3.95391e-07
 Reference value :  5.00000e-07
 Reference value :  5.00030e-07
 Reference value :  5.00100e-07
 Reference value :  5.00108e-07
 Reference value :  5.00156e-07
 Reference value :  5.00220e-07
 Reference value :  5.00348e-07
 Reference value :  5.00864e-07
 Reference value :  5.01299e-07
 Reference value :  5.01761e-07
 Reference value :  5.02238e-07
 Reference value :  5.02767e-07
 Reference value :  5.03396e-07
 Reference value :  5.04003e-07
 Reference value :  5.04684e-07
 Reference value :  5.05405e-07
 Reference value :  5.06382e-07
 Reference value :  5.07591e-07
 Reference value :  5.09219e-07
 Reference value :  5.10545e-07
 Reference value :  5.11936e-07
 Reference value :  5.13310e-07
 Reference value :  5.14846e-07
 Reference value :  5.16360e-07
 Reference value :  5.20400e-07
 Reference value :  5.22855e-07
 Reference value :  5.33768e-07
 Reference value :  5.64101e-07
 Reference value :  6.85430e-07
 Reference value :  7.50100e-07
 Reference value :  7.50110e-07
 Reference value :  7.50130e-07
 Reference value :  7.50170e-07
 Reference value :  7.50200e-07
 Reference value :  7.50224e-07
 Reference value :  7.50319e-07
 Reference value :  7.50700e-07
 Reference value :  7.51066e-07
 Reference value :  7.51531e-07
 Reference value :  7.52031e-07
 Reference value :  7.52559e-07
 Reference value :  7.53274e-07
 Reference value :  7.54048e-07
 Reference value :  7.54679e-07
 Reference value :  7.55368e-07
 Reference value :  7.56092e-07
 Reference value :  7.56985e-07
 Reference value :  7.57896e-07
 Reference value :  7.59691e-07
 Reference value :  7.65490e-07
 Reference value :  7.71457e-07
 Reference value :  8.00852e-07
 Reference value :  8.92856e-07
 Reference value :  1.00001e-06
 Reference value :  1.00003e-06
 Reference value :  1.00010e-06
 Reference value :  1.00012e-06
 Reference value :  1.00022e-06
 Reference value :  1.00035e-06
 Reference value :  1.00052e-06
 Reference value :  1.00086e-06
 Reference value :  1.00130e-06
 Reference value :  1.00176e-06
 Reference value :  1.00224e-06
 Reference value :  1.00341e-06
 Reference value :  1.00404e-06
 Reference value :  1.00458e-06
 Reference value :  1.00521e-06
 Reference value :  1.00582e-06
 Reference value :  1.00642e-06
 Reference value :  1.00799e-06
 Reference value :  1.00899e-06
 Reference value :  1.01057e-06
 Reference value :  1.01255e-06
 Reference value :  1.01401e-06
 Reference value :  1.01537e-06
 Reference value :  1.01671e-06
 Reference value :  1.01798e-06
 Reference value :  1.01910e-06
 Reference value :  1.02031e-06
 Reference value :  1.02161e-06
 Reference value :  1.02344e-06
 Reference value :  1.02864e-06
 Reference value :  1.03413e-06
 Reference value :  1.05782e-06
 Reference value :  1.08233e-06
 Reference value :  1.11628e-06
 Reference value :  1.14914e-06
 Reference value :  1.17449e-06
 Reference value :  1.18784e-06
 Reference value :  1.19676e-06
 Reference value :  1.20738e-06
 Reference value :  1.23010e-06
 Reference value :  1.25010e-06
 Reference value :  1.25011e-06
 Reference value :  1.25013e-06
 Reference value :  1.25017e-06
 Reference value :  1.25020e-06
 Reference value :  1.25022e-06
 Reference value :  1.25032e-06
 Reference value :  1.25045e-06
 Reference value :  1.25070e-06
 Reference value :  1.25106e-06
 Reference value :  1.25154e-06
 Reference value :  1.25204e-06
 Reference value :  1.25257e-06
 Reference value :  1.25329e-06
 Reference value :  1.25403e-06
 Reference value :  1.25480e-06
 Reference value :  1.25626e-06
 Reference value :  1.25861e-06
 Reference value :  1.26046e-06
 Reference value :  1.26750e-06
 Reference value :  1.28632e-06
 Reference value :  1.30602e-06
 Reference value :  1.39180e-06
 Reference value :  1.50000e-06
 Reference value :  1.50001e-06
 Reference value :  1.50003e-06
 Reference value :  1.50007e-06
 Reference value :  1.50010e-06
 Reference value :  1.50011e-06
 Reference value :  1.50012e-06
 Reference value :  1.50016e-06
 Reference value :  1.50035e-06
 Reference value :  1.50052e-06
 Reference value :  1.50086e-06
 Reference value :  1.50130e-06
 Reference value :  1.50177e-06
 Reference value :  1.50221e-06
 Reference value :  1.50270e-06
 Reference value :  1.50332e-06
 Reference value :  1.50405e-06
 Reference value :  1.50485e-06
 Reference value :  1.50560e-06
 Reference value :  1.50674e-06
 Reference value :  1.50753e-06
 Reference value :  1.50842e-06
 Reference value :  1.50946e-06
 Reference value :  1.51056e-06
 Reference value :  1.51157e-06
 Reference value :  1.51277e-06
 Reference value :  1.51682e-06
 Reference value :  1.52091e-06
 Reference value :  1.52875e-06
 Reference value :  1.54333e-06
 Reference value :  1.56958e-06
 Reference value :  1.62209e-06
 Reference value :  1.75010e-06
 Reference value :  1.75011e-06
 Reference value :  1.75013e-06
 Reference value :  1.75017e-06
 Reference value :  1.75020e-06
 Reference value :  1.75022e-06
 Reference value :  1.75032e-06
 Reference value :  1.75045e-06
 Reference value :  1.75070e-06
 Reference value :  1.75106e-06
 Reference value :  1.75153e-06
 Reference value :  1.75202e-06
 Reference value :  1.75255e-06
 Reference value :  1.75326e-06
 Reference value :  1.75404e-06
 Reference value :  1.75465e-06
 Reference value :  1.75605e-06
 Reference value :  1.75699e-06
 Reference value :  1.75887e-06
 Reference value :  1.75997e-06
 Reference value :  1.76319e-06
 Reference value :  1.76911e-06
 Reference value :  1.77526e-06
 Reference value :  1.79881e-06
 Reference value :  1.85809e-06
 Reference value :  2.00000e-06
 Reference value :  2.00003e-06
 Reference value :  2.00007e-06
 Reference value :  2.00010e-06
 Reference value :  2.00011e-06
 Reference value :  2.00012e-06
 Reference value :  2.00022e-06
 Reference value :  2.00035e-06
 Reference value :  2.00052e-06
 Reference value :  2.00086e-06
 Reference value :  2.00130e-06
 Reference value :  2.00176e-06
 Reference value :  2.00224e-06
 Reference value :  2.00341e-06
 Reference value :  2.00403e-06
 Reference value :  2.00457e-06
 Reference value :  2.00521e-06
 Reference value :  2.00583e-06
 Reference value :  2.00644e-06
 Reference value :  2.00801e-06
 Reference value :  2.00901e-06
 Reference value :  2.01046e-06
 Reference value :  2.01145e-06
 Reference value :  2.01255e-06
 Reference value :  2.01377e-06
 Reference value :  2.01509e-06
 Reference value :  2.01614e-06
 Reference value :  2.01725e-06
 Reference value :  2.01839e-06
 Reference value :  2.02090e-06
 Reference value :  2.02444e-06
 Reference value :  2.03139e-06
 Reference value :  2.05267e-06
 Reference value :  2.06917e-06
 Reference value :  2.10379e-06
 Reference value :  2.11586e-06
 Reference value :  2.13821e-06
 Reference value :  2.16177e-06
 Reference value :  2.19068e-06
 Reference value :  2.20902e-06
 Reference value :  2.22985e-06
 Reference value :  2.25011e-06
 Reference value :  2.25017e-06
 Reference value :  2.25020e-06
 Reference value :  2.25021e-06
 Reference value :  2.25022e-06
 Reference value :  2.25032e-06
 Reference value :  2.25045e-06
 Reference value :  2.25070e-06
 Reference value :  2.25106e-06
 Reference value :  2.25152e-06
 Reference value :  2.25202e-06
 Reference value :  2.25255e-06
 Reference value :  2.25327e-06
 Reference value :  2.25405e-06
 Reference value :  2.25465e-06
 Reference value :  2.25533e-06
 Reference value :  2.25600e-06
 Reference value :  2.25687e-06
 Reference value :  2.25778e-06
 Reference value :  2.25951e-06
 Reference value :  2.26506e-06
 Reference value :  2.28149e-06
 Reference value :  2.33215e-06
 Reference value :  2.39013e-06
 Reference value :  2.50001e-06
 Reference value :  2.50003e-06
 Reference value :  2.50010e-06
 Reference value :  2.50011e-06
 Reference value :  2.50016e-06
 Reference value :  2.50035e-06
 Reference value :  2.50052e-06
 Reference value :  2.50086e-06
 Reference value :  2.50130e-06
 Reference value :  2.50176e-06
 Reference value :  2.50224e-06
 Reference value :  2.50277e-06
 Reference value :  2.50399e-06
 Reference value :  2.50463e-06
 Reference value :  2.50532e-06
 Reference value :  2.50628e-06
 Reference value :  2.50729e-06
 Reference value :  2.50826e-06
 Reference value :  2.50925e-06
 Reference value :  2.51019e-06
 Reference value :  2.51122e-06
 Reference value :  2.51236e-06
 Reference value :  2.51363e-06
 Reference value :  2.52121e-06
 Reference value :  2.55036e-06
 Reference value :  2.66693e-06
 Reference value :  2.75010e-06
 Reference value :  2.75013e-06
 Reference value :  2.75020e-06
 Reference value :  2.75021e-06
 Reference value :  2.75026e-06
 Reference value :  2.75032e-06
 Reference value :  2.75045e-06
 Reference value :  2.75070e-06
 Reference value :  2.75106e-06
 Reference value :  2.75153e-06
 Reference value :  2.75204e-06
 Reference value :  2.75328e-06
 Reference value :  2.75406e-06
 Reference value :  2.75470e-06
 Reference value :  2.75539e-06
 Reference value :  2.75697e-06
 Reference value :  2.75788e-06
 Reference value :  2.75966e-06
 Reference value :  2.76193e-06
 Reference value :  2.76543e-06
 Reference value :  2.78204e-06
 Reference value :  2.83161e-06
 Reference value :  2.88665e-06
 Reference value :  3.00000e-06
 Reference value :  3.00003e-06
 Reference value :  3.00010e-06
 Reference value :  3.00012e-06
 Reference value :  3.00016e-06
 Reference value :  3.00022e-06
 Reference value :  3.00035e-06
 Reference value :  3.00052e-06
 Reference value :  3.00086e-06
 Reference value :  3.00130e-06
 Reference value :  3.00176e-06
 Reference value :  3.00224e-06
 Reference value :  3.00277e-06
 Reference value :  3.00341e-06
 Reference value :  3.00403e-06
 Reference value :  3.00458e-06
 Reference value :  3.00520e-06
 Reference value :  3.00582e-06
 Reference value :  3.00643e-06
 Reference value :  3.00711e-06
 Reference value :  3.00800e-06
 Reference value :  3.01061e-06
 Reference value :  3.01256e-06
 Reference value :  3.01401e-06
 Reference value :  3.01536e-06
 Reference value :  3.01669e-06
 Reference value :  3.01796e-06
 Reference value :  3.01907e-06
 Reference value :  3.02028e-06
 Reference value :  3.02158e-06
 Reference value :  3.02337e-06
 Reference value :  3.02852e-06
 Reference value :  3.03282e-06
 Reference value :  3.03751e-06
 Reference value :  3.04320e-06
 Reference value :  3.04939e-06
 Reference value :  3.05374e-06
 Reference value :  3.06229e-06
 Reference value :  3.06787e-06
 Reference value :  3.08094e-06
 Reference value :  3.10087e-06
 Reference value :  3.13929e-06
 Reference value :  3.17997e-06
 Reference value :  3.23723e-06
 Reference value :  3.25010e-06
 Reference value :  3.25013e-06
 Reference value :  3.25020e-06
 Reference value :  3.25021e-06
 Reference value :  3.25026e-06
 Reference value :  3.25045e-06
 Reference value :  3.25070e-06
 Reference value :  3.25106e-06
 Reference value :  3.25152e-06
 Reference value :  3.25202e-06
 Reference value :  3.25254e-06
 Reference value :  3.25326e-06
 Reference value :  3.25401e-06
 Reference value :  3.25464e-06
 Reference value :  3.25533e-06
 Reference value :  3.25599e-06
 Reference value :  3.25693e-06
 Reference value :  3.25789e-06
 Reference value :  3.25962e-06
 Reference value :  3.26188e-06
 Reference value :  3.27129e-06
 Reference value :  3.28192e-06
 Reference value :  3.33242e-06
 Reference value :  3.38875e-06
 Reference value :  3.50000e-06
 Reference value :  3.50001e-06
 Reference value :  3.50003e-06
 Reference value :  3.50007e-06
 Reference value :  3.50010e-06
 Reference value :  3.50012e-06
 Reference value :  3.50022e-06
 Reference value :  3.50035e-06
 Reference value :  3.50086e-06
 Reference value :  3.50130e-06
 Reference value :  3.50177e-06
 Reference value :  3.50221e-06
 Reference value :  3.50332e-06
 Reference value :  3.50405e-06
 Reference value :  3.50485e-06
 Reference value :  3.50560e-06
 Reference value :  3.50674e-06
 Reference value :  3.50753e-06
 Reference value :  3.50842e-06
 Reference value :  3.50946e-06
 Reference value :  3.51056e-06
 Reference value :  3.51157e-06
 Reference value :  3.51277e-06
 Reference value :  3.51681e-06
 Reference value :  3.52082e-06
 Reference value :  3.54261e-06
 Reference value :  3.56783e-06
 Reference value :  3.71911e-06
 Reference value :  3.75010e-06
 Reference value :  3.75011e-06
 Reference value :  3.75013e-06
 Reference value :  3.75017e-06
 Reference value :  3.75021e-06
 Reference value :  3.75022e-06
 Reference value :  3.75032e-06
 Reference value :  3.75045e-06
 Reference value :  3.75070e-06
 Reference value :  3.75105e-06
 Reference value :  3.75152e-06
 Reference value :  3.75202e-06
 Reference value :  3.75254e-06
 Reference value :  3.75326e-06
 Reference value :  3.75403e-06
 Reference value :  3.75464e-06
 Reference value :  3.75532e-06
 Reference value :  3.75604e-06
 Reference value :  3.75696e-06
 Reference value :  3.75786e-06
 Reference value :  3.75884e-06
 Reference value :  3.75995e-06
 Reference value :  3.76126e-06
 Reference value :  3.76317e-06
 Reference value :  3.76907e-06
 Reference value :  3.77519e-06
 Reference value :  3.79876e-06
 Reference value :  3.85818e-06
 Reference value :  3.91722e-06
 Reference value :  4.00001e-06
 Reference value :  4.00007e-06
 Reference value :  4.00011e-06
 Reference value :  4.00016e-06
 Reference value :  4.00035e-06
 Reference value :  4.00052e-06
 Reference value :  4.00086e-06
 Reference value :  4.00130e-06
 Reference value :  4.00176e-06
 Reference value :  4.00224e-06
 Reference value :  4.00277e-06
 Reference value :  4.00340e-06
 Reference value :  4.00403e-06
 Reference value :  4.00457e-06
 Reference value :  4.00521e-06
 Reference value :  4.00583e-06
 Reference value :  4.00644e-06
 Reference value :  4.00712e-06
 Reference value :  4.00802e-06
 Reference value :  4.00901e-06
 Reference value :  4.01047e-06
 Reference value :  4.01146e-06
 Reference value :  4.01256e-06
 Reference value :  4.01378e-06
 Reference value :  4.01509e-06
 Reference value :  4.01617e-06
 Reference value :  4.01730e-06
 Reference value :  4.01847e-06
 Reference value :  4.01968e-06
 Reference value :  4.02106e-06
 Reference value :  4.02250e-06
 Reference value :  4.02727e-06
 Reference value :  4.03140e-06
 Reference value :  4.03634e-06
 Reference value :  4.04094e-06
 Reference value :  4.04443e-06
 Reference value :  4.04780e-06
 Reference value :  4.04996e-06
 Reference value :  4.05260e-06
 Reference value :  4.05787e-06
 Reference value :  4.06906e-06
 Reference value :  4.07569e-06
 Reference value :  4.08895e-06
 Reference value :  4.13975e-06
 Reference value :  4.23163e-06
 Reference value :  4.25010e-06
 Reference value :  4.25011e-06
 Reference value :  4.25013e-06
 Reference value :  4.25017e-06
 Reference value :  4.25020e-06
 Reference value :  4.25021e-06
 Reference value :  4.25022e-06
 Reference value :  4.25026e-06
 Reference value :  4.25032e-06
 Reference value :  4.25070e-06
 Reference value :  4.25106e-06
 Reference value :  4.25153e-06
 Reference value :  4.25203e-06
 Reference value :  4.25256e-06
 Reference value :  4.25328e-06
 Reference value :  4.25406e-06
 Reference value :  4.25467e-06
 Reference value :  4.25536e-06
 Reference value :  4.25602e-06
 Reference value :  4.25691e-06
 Reference value :  4.25784e-06
 Reference value :  4.25957e-06
 Reference value :  4.26181e-06
 Reference value :  4.26521e-06
 Reference value :  4.27100e-06
 Reference value :  4.29917e-06
 Reference value :  4.33125e-06
 Reference value :  4.48634e-06
 Reference value :  4.50001e-06
 Reference value :  4.50003e-06
 Reference value :  4.50010e-06
 Reference value :  4.50012e-06
 Reference value :  4.50022e-06
 Reference value :  4.50052e-06
 Reference value :  4.50130e-06
 Reference value :  4.50176e-06
 Reference value :  4.50224e-06
 Reference value :  4.50277e-06
 Reference value :  4.50340e-06
 Reference value :  4.50399e-06
 Reference value :  4.50463e-06
 Reference value :  4.50532e-06
 Reference value :  4.50628e-06
 Reference value :  4.50730e-06
 Reference value :  4.50826e-06
 Reference value :  4.50925e-06
 Reference value :  4.51019e-06
 Reference value :  4.51237e-06
 Reference value :  4.51616e-06
 Reference value :  4.53092e-06
 Reference value :  4.58915e-06
 Reference value :  4.75010e-06
 Reference value :  4.75013e-06
 Reference value :  4.75020e-06
 Reference value :  4.75022e-06
 Reference value :  4.75032e-06
 Reference value :  4.75045e-06
 Reference value :  4.75070e-06
 Reference value :  4.75106e-06
 Reference value :  4.75153e-06
 Reference value :  4.75203e-06
 Reference value :  4.75256e-06
 Reference value :  4.75328e-06
 Reference value :  4.75405e-06
 Reference value :  4.75469e-06
 Reference value :  4.75609e-06
 Reference value :  4.75706e-06
 Reference value :  4.75793e-06
 Reference value :  4.75968e-06
 Reference value :  4.76554e-06
 Reference value :  4.78226e-06
 Reference value :  4.83177e-06
 Reference value :  4.88625e-06
 Reference value :  5.00000e-06
 Reference value :  5.00001e-06
 Reference value :  5.00003e-06
 Reference value :  5.00010e-06
 Reference value :  5.00011e-06
 Reference value :  5.00012e-06
 Reference value :  5.00022e-06
 Reference value :  5.00035e-06
 Reference value :  5.00086e-06
 Reference value :  5.00130e-06
 Reference value :  5.00176e-06
 Reference value :  5.00224e-06
 Reference value :  5.00277e-06
 Reference value :  5.00340e-06
 Reference value :  5.00403e-06
 Reference value :  5.00458e-06
 Reference value :  5.00520e-06
 Reference value :  5.00582e-06
 Reference value :  5.00643e-06
 Reference value :  5.00711e-06
 Reference value :  5.00801e-06
 Reference value :  5.00900e-06
 Reference value :  5.01062e-06
 Reference value :  5.01256e-06
 Reference value :  5.01402e-06
 Reference value :  5.01536e-06
 Reference value :  5.01668e-06
 Reference value :  5.01795e-06
 Reference value :  5.01906e-06
 Reference value :  5.02027e-06
 Reference value :  5.02157e-06
 Reference value :  5.02336e-06
 Reference value :  5.02526e-06
 Reference value :  5.02850e-06
 Reference value :  5.03834e-06
 Reference value :  5.04374e-06
 Reference value :  5.04794e-06
 Reference value :  5.05245e-06
 Reference value :  5.05716e-06
 Reference value :  5.06194e-06
 Reference value :  5.06721e-06
 Reference value :  5.07310e-06
 Reference value :  5.08704e-06
 Reference value :  5.12631e-06
 Reference value :  5.16925e-06
 Reference value :  5.24974e-06
 Reference value :  5.25011e-06
 Reference value :  5.25017e-06
 Reference value :  5.25020e-06
 Reference value :  5.25022e-06
 Reference value :  5.25032e-06
 Reference value :  5.25070e-06
 Reference value :  5.25105e-06
 Reference value :  5.25203e-06
 Reference value :  5.25256e-06
 Reference value :  5.25328e-06
 Reference value :  5.25402e-06
 Reference value :  5.25468e-06
 Reference value :  5.25538e-06
 Reference value :  5.25605e-06
 Reference value :  5.25714e-06
 Reference value :  5.25994e-06
 Reference value :  5.26601e-06
 Reference value :  5.28349e-06
 Reference value :  5.30265e-06
 Reference value :  5.38950e-06
 Reference value :  5.50000e-06
 Reference value :  5.50001e-06
 Reference value :  5.50007e-06
 Reference value :  5.50011e-06
 Reference value :  5.50016e-06
 Reference value :  5.50022e-06
 Reference value :  5.50052e-06
 Reference value :  5.50086e-06
 Reference value :  5.50130e-06
 Reference value :  5.50177e-06
 Reference value :  5.50221e-06
 Reference value :  5.50270e-06
 Reference value :  5.50332e-06
 Reference value :  5.50405e-06
 Reference value :  5.50485e-06
 Reference value :  5.50560e-06
 Reference value :  5.50674e-06
 Reference value :  5.50753e-06
 Reference value :  5.50842e-06
 Reference value :  5.50946e-06
 Reference value :  5.51056e-06
 Reference value :  5.51157e-06
 Reference value :  5.51277e-06
 Reference value :  5.51411e-06
 Reference value :  5.51680e-06
 Reference value :  5.52078e-06
 Reference value :  5.52838e-06
 Reference value :  5.54227e-06
 Reference value :  5.61640e-06
 Reference value :  5.75010e-06
 Reference value :  5.75011e-06
 Reference value :  5.75013e-06
 Reference value :  5.75017e-06
 Reference value :  5.75020e-06
 Reference value :  5.75021e-06
 Reference value :  5.75022e-06
 Reference value :  5.75026e-06
 Reference value :  5.75032e-06
 Reference value :  5.75045e-06
 Reference value :  5.75070e-06
 Reference value :  5.75105e-06
 Reference value :  5.75152e-06
 Reference value :  5.75202e-06
 Reference value :  5.75254e-06
 Reference value :  5.75325e-06
 Reference value :  5.75403e-06
 Reference value :  5.75464e-06
 Reference value :  5.75532e-06
 Reference value :  5.75604e-06
 Reference value :  5.75695e-06
 Reference value :  5.75883e-06
 Reference value :  5.75995e-06
 Reference value :  5.76317e-06
 Reference value :  5.76547e-06
 Reference value :  5.77517e-06
 Reference value :  5.79874e-06
 Reference value :  5.85824e-06
 Reference value :  6.00000e-06
 Reference value :  6.00001e-06
 Reference value :  6.00007e-06
 Reference value :  6.00010e-06
 Reference value :  6.00011e-06
 Reference value :  6.00016e-06
 Reference value :  6.00035e-06
 Reference value :  6.00052e-06
 Reference value :  6.00130e-06
 Reference value :  6.00176e-06
 Reference value :  6.00224e-06
 Reference value :  6.00276e-06
 Reference value :  6.00340e-06
 Reference value :  6.00403e-06
 Reference value :  6.00457e-06
 Reference value :  6.00521e-06
 Reference value :  6.00583e-06
 Reference value :  6.00644e-06
 Reference value :  6.00802e-06
 Reference value :  6.00902e-06
 Reference value :  6.01047e-06
 Reference value :  6.01146e-06
 Reference value :  6.01256e-06
 Reference value :  6.01378e-06
 Reference value :  6.01509e-06
 Reference value :  6.01626e-06
 Reference value :  6.01745e-06
 Reference value :  6.01858e-06
 Reference value :  6.01980e-06
 Reference value :  6.02130e-06
 Reference value :  6.02503e-06
 Reference value :  6.02777e-06
 Reference value :  6.03533e-06
 Reference value :  6.03834e-06
 Reference value :  6.04130e-06
 Reference value :  6.04456e-06
 Reference value :  6.04799e-06
 Reference value :  6.06853e-06
 Reference value :  6.11868e-06
 Reference value :  6.23055e-06
 Reference value :  6.25011e-06
 Reference value :  6.25017e-06
 Reference value :  6.25021e-06
 Reference value :  6.25026e-06
 Reference value :  6.25032e-06
 Reference value :  6.25070e-06
 Reference value :  6.25105e-06
 Reference value :  6.25152e-06
 Reference value :  6.25202e-06
 Reference value :  6.25254e-06
 Reference value :  6.25326e-06
 Reference value :  6.25405e-06
 Reference value :  6.25464e-06
 Reference value :  6.25532e-06
 Reference value :  6.25599e-06
 Reference value :  6.25685e-06
 Reference value :  6.25949e-06
 Reference value :  6.26501e-06
 Reference value :  6.27051e-06
 Reference value :  6.28121e-06
 Reference value :  6.29845e-06
 Reference value :  6.38715e-06
 Reference value :  6.50001e-06
 Reference value :  6.50007e-06
 Reference value :  6.50011e-06
 Reference value :  6.50016e-06
 Reference value :  6.50035e-06
 Reference value :  6.50086e-06
 Reference value :  6.50130e-06
 Reference value :  6.50176e-06
 Reference value :  6.50224e-06
 Reference value :  6.50277e-06
 Reference value :  6.50340e-06
 Reference value :  6.50399e-06
 Reference value :  6.50463e-06
 Reference value :  6.50628e-06
 Reference value :  6.50730e-06
 Reference value :  6.50826e-06
 Reference value :  6.50925e-06
 Reference value :  6.51019e-06
 Reference value :  6.51123e-06
 Reference value :  6.51237e-06
 Reference value :  6.51363e-06
 Reference value :  6.52121e-06
 Reference value :  6.55031e-06
 Reference value :  6.66668e-06
 Reference value :  6.75011e-06
 Reference value :  6.75013e-06
 Reference value :  6.75017e-06
 Reference value :  6.75020e-06
 Reference value :  6.75022e-06
 Reference value :  6.75026e-06
 Reference value :  6.75032e-06
 Reference value :  6.75045e-06
 Reference value :  6.75105e-06
 Reference value :  6.75153e-06
 Reference value :  6.75203e-06
 Reference value :  6.75256e-06
 Reference value :  6.75328e-06
 Reference value :  6.75405e-06
 Reference value :  6.75468e-06
 Reference value :  6.75537e-06
 Reference value :  6.75608e-06
 Reference value :  6.75705e-06
 Reference value :  6.75792e-06
 Reference value :  6.76197e-06
 Reference value :  6.76552e-06
 Reference value :  6.77153e-06
 Reference value :  6.78215e-06
 Reference value :  6.79986e-06
 Reference value :  6.83128e-06
 Reference value :  6.88526e-06
 Reference value :  6.97917e-06
 Reference value :  7.00001e-06
 Reference value :  7.00003e-06
 Reference value :  7.00010e-06
 Reference value :  7.00012e-06
 Reference value :  7.00016e-06
 Reference value :  7.00035e-06
 Reference value :  7.00052e-06
 Reference value :  7.00130e-06
 Reference value :  7.00176e-06
 Reference value :  7.00224e-06
 Reference value :  7.00340e-06
 Reference value :  7.00403e-06
 Reference value :  7.00458e-06
 Reference value :  7.00520e-06
 Reference value :  7.00582e-06
 Reference value :  7.00643e-06
 Reference value :  7.00711e-06
 Reference value :  7.00801e-06
 Reference value :  7.00901e-06
 Reference value :  7.01062e-06
 Reference value :  7.01256e-06
 Reference value :  7.01402e-06
 Reference value :  7.01536e-06
 Reference value :  7.01667e-06
 Reference value :  7.01794e-06
 Reference value :  7.01905e-06
 Reference value :  7.02026e-06
 Reference value :  7.02156e-06
 Reference value :  7.02334e-06
 Reference value :  7.02524e-06
 Reference value :  7.02847e-06
 Reference value :  7.03254e-06
 Reference value :  7.03722e-06
 Reference value :  7.04075e-06
 Reference value :  7.04449e-06
 Reference value :  7.04807e-06
 Reference value :  7.05788e-06
 Reference value :  7.06373e-06
 Reference value :  7.06998e-06
 Reference value :  7.07685e-06
 Reference value :  7.11200e-06
 Reference value :  7.14661e-06
 Reference value :  7.19915e-06
 Reference value :  7.25010e-06
 Reference value :  7.25011e-06
 Reference value :  7.25013e-06
 Reference value :  7.25017e-06
 Reference value :  7.25020e-06
 Reference value :  7.25021e-06
 Reference value :  7.25026e-06
 Reference value :  7.25045e-06
 Reference value :  7.25105e-06
 Reference value :  7.25202e-06
 Reference value :  7.25254e-06
 Reference value :  7.25326e-06
 Reference value :  7.25400e-06
 Reference value :  7.25463e-06
 Reference value :  7.25531e-06
 Reference value :  7.25598e-06
 Reference value :  7.25690e-06
 Reference value :  7.25958e-06
 Reference value :  7.26182e-06
 Reference value :  7.26520e-06
 Reference value :  7.27108e-06
 Reference value :  7.29923e-06
 Reference value :  7.38655e-06
 Reference value :  7.49724e-06
 Reference value :  7.50001e-06
 Reference value :  7.50007e-06
 Reference value :  7.50010e-06
 Reference value :  7.50012e-06
 Reference value :  7.50016e-06
 Reference value :  7.50022e-06
 Reference value :  7.50052e-06
 Reference value :  7.50086e-06
 Reference value :  7.50130e-06
 Reference value :  7.50177e-06
 Reference value :  7.50221e-06
 Reference value :  7.50332e-06
 Reference value :  7.50405e-06
 Reference value :  7.50485e-06
 Reference value :  7.50560e-06
 Reference value :  7.50674e-06
 Reference value :  7.50753e-06
 Reference value :  7.50842e-06
 Reference value :  7.50946e-06
 Reference value :  7.51056e-06
 Reference value :  7.51157e-06
 Reference value :  7.51277e-06
 Reference value :  7.51680e-06
 Reference value :  7.52831e-06
 Reference value :  7.56646e-06
 Reference value :  7.71290e-06
 Reference value :  7.75011e-06
 Reference value :  7.75017e-06
 Reference value :  7.75021e-06
 Reference value :  7.75022e-06
 Reference value :  7.75026e-06
 Reference value :  7.75045e-06
 Reference value :  7.75070e-06
 Reference value :  7.75105e-06
 Reference value :  7.75152e-06
 Reference value :  7.75201e-06
 Reference value :  7.75254e-06
 Reference value :  7.75325e-06
 Reference value :  7.75403e-06
 Reference value :  7.75464e-06
 Reference value :  7.75531e-06
 Reference value :  7.75604e-06
 Reference value :  7.75694e-06
 Reference value :  7.75785e-06
 Reference value :  7.75882e-06
 Reference value :  7.75995e-06
 Reference value :  7.76316e-06
 Reference value :  7.76545e-06
 Reference value :  7.76903e-06
 Reference value :  7.77515e-06
 Reference value :  7.79875e-06
 Reference value :  7.85835e-06
 Reference value :  7.91767e-06
 Reference value :  8.00000e-06
 Reference value :  8.00001e-06
 Reference value :  8.00007e-06
 Reference value :  8.00011e-06
 Reference value :  8.00012e-06
 Reference value :  8.00016e-06
 Reference value :  8.00022e-06
 Reference value :  8.00035e-06
 Reference value :  8.00086e-06
 Reference value :  8.00130e-06
 Reference value :  8.00176e-06
 Reference value :  8.00224e-06
 Reference value :  8.00276e-06
 Reference value :  8.00340e-06
 Reference value :  8.00403e-06
 Reference value :  8.00457e-06
 Reference value :  8.00521e-06
 Reference value :  8.00583e-06
 Reference value :  8.00644e-06
 Reference value :  8.00712e-06
 Reference value :  8.00802e-06
 Reference value :  8.00902e-06
 Reference value :  8.01001e-06
 Reference value :  8.01082e-06
 Reference value :  8.01171e-06
 Reference value :  8.01286e-06
 Reference value :  8.01401e-06
 Reference value :  8.01630e-06
 Reference value :  8.01920e-06
 Reference value :  8.02570e-06
 Reference value :  8.03164e-06
 Reference value :  8.04037e-06
 Reference value :  8.04930e-06
 Reference value :  8.05898e-06
 Reference value :  8.06845e-06
 Reference value :  8.07753e-06
 Reference value :  8.09875e-06
 Reference value :  8.11292e-06
 Reference value :  8.17055e-06
 Reference value :  8.22623e-06
 Reference value :  8.25010e-06
 Reference value :  8.25013e-06
 Reference value :  8.25020e-06
 Reference value :  8.25022e-06
 Reference value :  8.25032e-06
 Reference value :  8.25045e-06
 Reference value :  8.25070e-06
 Reference value :  8.25105e-06
 Reference value :  8.25153e-06
 Reference value :  8.25203e-06
 Reference value :  8.25256e-06
 Reference value :  8.25328e-06
 Reference value :  8.25425e-06
 Reference value :  8.25517e-06
 Reference value :  8.25614e-06
 Reference value :  8.25726e-06
 Reference value :  8.25861e-06
 Reference value :  8.26033e-06
 Reference value :  8.26636e-06
 Reference value :  8.27235e-06
 Reference value :  8.29435e-06
 Reference value :  8.35803e-06
 Reference value :  8.50000e-06
No. of Data Rows : 1284
ngspice-44 done
