
Note: Compatibility modes selected: hs a


Circuit: ** sch_path: /home/ece/cace/sar-adc-using-sky130-pdk/runs/run_2025-09-13_02-24-55/parameters/sndr/run_2/sndr_enob_fom.sch

option SCALE: Scale is set to 1e-06 for instance and model parameters
option SCALE: Scale is set to 1e-06 for instance and model parameters
option SCALE: Scale is set to 1e-06 for instance and model parameters
option SCALE: Scale is set to 1e-06 for instance and model parameters
Doing analysis at TEMP = 27.000000 and TNOM = 27.000000

Using KLU as Direct Linear Solver
Operating point simulation skipped by 'uic',
  now using transient initial conditions.
 Reference value :  1.00000e-12
 Reference value :  1.17716e-12
 Reference value :  4.06531e-12
 Reference value :  3.07262e-11
 Reference value :  1.14060e-10
 Reference value :  3.95265e-10
 Reference value :  1.32724e-09
 Reference value :  3.14716e-09
 Reference value :  6.04283e-09
 Reference value :  6.65794e-09
 Reference value :  7.90343e-09
 Reference value :  9.38950e-09
 Reference value :  1.05882e-08
 Reference value :  1.34620e-08
 Reference value :  2.24265e-08
 Reference value :  3.28474e-08
 Reference value :  6.80332e-08
 Reference value :  2.50100e-07
 Reference value :  2.50170e-07
 Reference value :  2.50255e-07
 Reference value :  2.50542e-07
 Reference value :  2.51285e-07
 Reference value :  2.52120e-07
 Reference value :  2.53256e-07
 Reference value :  2.54259e-07
 Reference value :  2.56196e-07
 Reference value :  2.61158e-07
 Reference value :  2.80528e-07
 Reference value :  5.00000e-07
 Reference value :  5.00070e-07
 Reference value :  5.00124e-07
 Reference value :  5.00338e-07
 Reference value :  5.00827e-07
 Reference value :  5.01575e-07
 Reference value :  5.02414e-07
 Reference value :  5.03446e-07
 Reference value :  5.05563e-07
 Reference value :  5.07839e-07
 Reference value :  5.11637e-07
 Reference value :  5.16583e-07
 Reference value :  5.38812e-07
 Reference value :  7.50100e-07
 Reference value :  7.50208e-07
 Reference value :  7.50448e-07
 Reference value :  7.51397e-07
 Reference value :  7.52994e-07
 Reference value :  7.53976e-07
 Reference value :  7.55035e-07
 Reference value :  7.58107e-07
 Reference value :  8.05255e-07
 Reference value :  1.00001e-06
 Reference value :  1.00011e-06
 Reference value :  1.00034e-06
 Reference value :  1.00119e-06
 Reference value :  1.00242e-06
 Reference value :  1.00396e-06
 Reference value :  1.00632e-06
 Reference value :  1.01119e-06
 Reference value :  1.01429e-06
 Reference value :  1.01916e-06
 Reference value :  1.04994e-06
 Reference value :  1.25010e-06
 Reference value :  1.25020e-06
 Reference value :  1.25045e-06
 Reference value :  1.25140e-06
 Reference value :  1.25300e-06
 Reference value :  1.25399e-06
 Reference value :  1.25758e-06
 Reference value :  1.28971e-06
 Reference value :  1.50001e-06
 Reference value :  1.50010e-06
 Reference value :  1.50016e-06
 Reference value :  1.50052e-06
 Reference value :  1.50158e-06
 Reference value :  1.50289e-06
 Reference value :  1.50474e-06
 Reference value :  1.50616e-06
 Reference value :  1.50864e-06
 Reference value :  1.52062e-06
 Reference value :  1.75011e-06
 Reference value :  1.75021e-06
 Reference value :  1.75045e-06
 Reference value :  1.75140e-06
 Reference value :  1.75299e-06
 Reference value :  1.75397e-06
 Reference value :  1.75580e-06
 Reference value :  1.77002e-06
 Reference value :  2.00001e-06
 Reference value :  2.00011e-06
 Reference value :  2.00034e-06
 Reference value :  2.00158e-06
 Reference value :  2.00289e-06
 Reference value :  2.00450e-06
 Reference value :  2.00554e-06
 Reference value :  2.00996e-06
 Reference value :  2.01223e-06
 Reference value :  2.01525e-06
 Reference value :  2.02077e-06
 Reference value :  2.12179e-06
 Reference value :  2.25017e-06
 Reference value :  2.25026e-06
 Reference value :  2.25098e-06
 Reference value :  2.25230e-06
 Reference value :  2.25345e-06
 Reference value :  2.25461e-06
 Reference value :  2.25743e-06
 Reference value :  2.27254e-06
 Reference value :  2.49002e-06
 Reference value :  2.50003e-06
 Reference value :  2.50010e-06
 Reference value :  2.50016e-06
 Reference value :  2.50034e-06
 Reference value :  2.50083e-06
 Reference value :  2.50158e-06
 Reference value :  2.50290e-06
 Reference value :  2.50474e-06
 Reference value :  2.50616e-06
 Reference value :  2.50771e-06
 Reference value :  2.51250e-06
 Reference value :  2.54791e-06
 Reference value :  2.75011e-06
 Reference value :  2.75020e-06
 Reference value :  2.75032e-06
 Reference value :  2.75098e-06
 Reference value :  2.75186e-06
 Reference value :  2.75299e-06
 Reference value :  2.75345e-06
 Reference value :  2.75448e-06
 Reference value :  2.75580e-06
 Reference value :  2.76365e-06
 Reference value :  2.85825e-06
 Reference value :  3.00003e-06
 Reference value :  3.00012e-06
 Reference value :  3.00052e-06
 Reference value :  3.00158e-06
 Reference value :  3.00289e-06
 Reference value :  3.00450e-06
 Reference value :  3.00554e-06
 Reference value :  3.00846e-06
 Reference value :  3.01120e-06
 Reference value :  3.01323e-06
 Reference value :  3.01525e-06
 Reference value :  3.01914e-06
 Reference value :  3.02836e-06
 Reference value :  3.03907e-06
 Reference value :  3.04708e-06
 Reference value :  3.05709e-06
 Reference value :  3.06853e-06
 Reference value :  3.09771e-06
 Reference value :  3.13758e-06
 Reference value :  3.19081e-06
 Reference value :  3.25011e-06
 Reference value :  3.25020e-06
 Reference value :  3.25026e-06
 Reference value :  3.25069e-06
 Reference value :  3.25140e-06
 Reference value :  3.25299e-06
 Reference value :  3.25395e-06
 Reference value :  3.25595e-06
 Reference value :  3.26146e-06
 Reference value :  3.31340e-06
 Reference value :  3.50000e-06
 Reference value :  3.50007e-06
 Reference value :  3.50012e-06
 Reference value :  3.50034e-06
 Reference value :  3.50119e-06
 Reference value :  3.50195e-06
 Reference value :  3.50282e-06
 Reference value :  3.50388e-06
 Reference value :  3.50536e-06
 Reference value :  3.50598e-06
 Reference value :  3.50749e-06
 Reference value :  3.50924e-06
 Reference value :  3.51145e-06
 Reference value :  3.52235e-06
 Reference value :  3.64618e-06
 Reference value :  3.75013e-06
 Reference value :  3.75021e-06
 Reference value :  3.75032e-06
 Reference value :  3.75069e-06
 Reference value :  3.75140e-06
 Reference value :  3.75299e-06
 Reference value :  3.75448e-06
 Reference value :  3.75751e-06
 Reference value :  3.76106e-06
 Reference value :  3.79000e-06
 Reference value :  4.00000e-06
 Reference value :  4.00007e-06
 Reference value :  4.00016e-06
 Reference value :  4.00052e-06
 Reference value :  4.00158e-06
 Reference value :  4.00290e-06
 Reference value :  4.00390e-06
 Reference value :  4.00534e-06
 Reference value :  4.00758e-06
 Reference value :  4.00928e-06
 Reference value :  4.01015e-06
 Reference value :  4.01191e-06
 Reference value :  4.01357e-06
 Reference value :  4.01635e-06
 Reference value :  4.02086e-06
 Reference value :  4.02339e-06
 Reference value :  4.02846e-06
 Reference value :  4.04231e-06
 Reference value :  4.07897e-06
 Reference value :  4.12973e-06
 Reference value :  4.25011e-06
 Reference value :  4.25020e-06
 Reference value :  4.25032e-06
 Reference value :  4.25098e-06
 Reference value :  4.25186e-06
 Reference value :  4.25299e-06
 Reference value :  4.25345e-06
 Reference value :  4.25461e-06
 Reference value :  4.25889e-06
 Reference value :  4.37299e-06
 Reference value :  4.50007e-06
 Reference value :  4.50022e-06
 Reference value :  4.50083e-06
 Reference value :  4.50201e-06
 Reference value :  4.50342e-06
 Reference value :  4.50616e-06
 Reference value :  4.50771e-06
 Reference value :  4.51250e-06
 Reference value :  4.65576e-06
 Reference value :  4.75017e-06
 Reference value :  4.75026e-06
 Reference value :  4.75069e-06
 Reference value :  4.75140e-06
 Reference value :  4.75299e-06
 Reference value :  4.75344e-06
 Reference value :  4.75448e-06
 Reference value :  4.75579e-06
 Reference value :  4.76027e-06
 Reference value :  4.78226e-06
 Reference value :  5.00000e-06
 Reference value :  5.00007e-06
 Reference value :  5.00011e-06
 Reference value :  5.00016e-06
 Reference value :  5.00034e-06
 Reference value :  5.00083e-06
 Reference value :  5.00158e-06
 Reference value :  5.00289e-06
 Reference value :  5.00396e-06
 Reference value :  5.00500e-06
 Reference value :  5.00709e-06
 Reference value :  5.00997e-06
 Reference value :  5.01223e-06
 Reference value :  5.01524e-06
 Reference value :  5.02074e-06
 Reference value :  5.03299e-06
 Reference value :  5.04792e-06
 Reference value :  5.06652e-06
 Reference value :  5.08125e-06
 Reference value :  5.11112e-06
 Reference value :  5.12249e-06
 Reference value :  5.14096e-06
 Reference value :  5.24624e-06
 Reference value :  5.25013e-06
 Reference value :  5.25022e-06
 Reference value :  5.25069e-06
 Reference value :  5.25140e-06
 Reference value :  5.25229e-06
 Reference value :  5.25345e-06
 Reference value :  5.25460e-06
 Reference value :  5.25740e-06
 Reference value :  5.27232e-06
 Reference value :  5.37231e-06
 Reference value :  5.50003e-06
 Reference value :  5.50012e-06
 Reference value :  5.50034e-06
 Reference value :  5.50083e-06
 Reference value :  5.50158e-06
 Reference value :  5.50242e-06
 Reference value :  5.50342e-06
 Reference value :  5.50474e-06
 Reference value :  5.50616e-06
 Reference value :  5.50771e-06
 Reference value :  5.51249e-06
 Reference value :  5.58267e-06
 Reference value :  5.75013e-06
 Reference value :  5.75022e-06
 Reference value :  5.75069e-06
 Reference value :  5.75140e-06
 Reference value :  5.75299e-06
 Reference value :  5.75397e-06
 Reference value :  5.75502e-06
 Reference value :  5.75661e-06
 Reference value :  5.76361e-06
 Reference value :  5.80748e-06
 Reference value :  6.00000e-06
 Reference value :  6.00007e-06
 Reference value :  6.00012e-06
 Reference value :  6.00022e-06
 Reference value :  6.00083e-06
 Reference value :  6.00158e-06
 Reference value :  6.00242e-06
 Reference value :  6.00289e-06
 Reference value :  6.00396e-06
 Reference value :  6.00500e-06
 Reference value :  6.00631e-06
 Reference value :  6.00847e-06
 Reference value :  6.01120e-06
 Reference value :  6.01322e-06
 Reference value :  6.01524e-06
 Reference value :  6.01737e-06
 Reference value :  6.02392e-06
 Reference value :  6.02795e-06
 Reference value :  6.03096e-06
 Reference value :  6.03693e-06
 Reference value :  6.04322e-06
 Reference value :  6.05789e-06
 Reference value :  6.08221e-06
 Reference value :  6.16121e-06
 Reference value :  6.23125e-06
 Reference value :  6.25013e-06
 Reference value :  6.25020e-06
 Reference value :  6.25026e-06
 Reference value :  6.25069e-06
 Reference value :  6.25140e-06
 Reference value :  6.25229e-06
 Reference value :  6.25345e-06
 Reference value :  6.25461e-06
 Reference value :  6.25890e-06
 Reference value :  6.28687e-06
 Reference value :  6.50000e-06
 Reference value :  6.50007e-06
 Reference value :  6.50012e-06
 Reference value :  6.50034e-06
 Reference value :  6.50119e-06
 Reference value :  6.50201e-06
 Reference value :  6.50290e-06
 Reference value :  6.50399e-06
 Reference value :  6.50553e-06
 Reference value :  6.50616e-06
 Reference value :  6.50771e-06
 Reference value :  6.51086e-06
 Reference value :  6.52061e-06
 Reference value :  6.65715e-06
 Reference value :  6.75013e-06
 Reference value :  6.75021e-06
 Reference value :  6.75045e-06
 Reference value :  6.75139e-06
 Reference value :  6.75299e-06
 Reference value :  6.75397e-06
 Reference value :  6.75579e-06
 Reference value :  6.76361e-06
 Reference value :  6.95777e-06
 Reference value :  7.00003e-06
 Reference value :  7.00012e-06
 Reference value :  7.00052e-06
 Reference value :  7.00158e-06
 Reference value :  7.00289e-06
 Reference value :  7.00450e-06
 Reference value :  7.00554e-06
 Reference value :  7.00847e-06
 Reference value :  7.01120e-06
 Reference value :  7.01322e-06
 Reference value :  7.01524e-06
 Reference value :  7.01911e-06
 Reference value :  7.02676e-06
 Reference value :  7.03007e-06
 Reference value :  7.03525e-06
 Reference value :  7.04427e-06
 Reference value :  7.06341e-06
 Reference value :  7.12505e-06
 Reference value :  7.25011e-06
 Reference value :  7.25020e-06
 Reference value :  7.25032e-06
 Reference value :  7.25140e-06
 Reference value :  7.25299e-06
 Reference value :  7.25394e-06
 Reference value :  7.25592e-06
 Reference value :  7.26478e-06
 Reference value :  7.36636e-06
 Reference value :  7.50003e-06
 Reference value :  7.50011e-06
 Reference value :  7.50034e-06
 Reference value :  7.50119e-06
 Reference value :  7.50193e-06
 Reference value :  7.50280e-06
 Reference value :  7.50387e-06
 Reference value :  7.50596e-06
 Reference value :  7.50746e-06
 Reference value :  7.51023e-06
 Reference value :  7.52247e-06
 Reference value :  7.65092e-06
 Reference value :  7.75013e-06
 Reference value :  7.75022e-06
 Reference value :  7.75069e-06
 Reference value :  7.75139e-06
 Reference value :  7.75298e-06
 Reference value :  7.75344e-06
 Reference value :  7.75447e-06
 Reference value :  7.75578e-06
 Reference value :  7.75834e-06
 Reference value :  7.76101e-06
 Reference value :  7.77458e-06
 Reference value :  7.87703e-06
 Reference value :  8.00001e-06
 Reference value :  8.00010e-06
 Reference value :  8.00016e-06
 Reference value :  8.00052e-06
 Reference value :  8.00119e-06
 Reference value :  8.00201e-06
 Reference value :  8.00290e-06
 Reference value :  8.00389e-06
 Reference value :  8.00484e-06
 Reference value :  8.00663e-06
 Reference value :  8.00909e-06
 Reference value :  8.01246e-06
 Reference value :  8.01625e-06
 Reference value :  8.02114e-06
 Reference value :  8.02653e-06
 Reference value :  8.03748e-06
 Reference value :  8.05827e-06
 Reference value :  8.13503e-06
 Reference value :  8.25011e-06
 Reference value :  8.25020e-06
 Reference value :  8.25026e-06
 Reference value :  8.25070e-06
 Reference value :  8.25139e-06
 Reference value :  8.25228e-06
 Reference value :  8.25298e-06
 Reference value :  8.25535e-06
 Reference value :  8.25919e-06
 Reference value :  8.29147e-06
 Reference value :  8.50000e-06
 Reference value :  8.50003e-06
 Reference value :  8.50010e-06
 Reference value :  8.50012e-06
 Reference value :  8.50022e-06
 Reference value :  8.50059e-06
 Reference value :  8.50135e-06
 Reference value :  8.50228e-06
 Reference value :  8.50335e-06
 Reference value :  8.50438e-06
 Reference value :  8.50548e-06
 Reference value :  8.50885e-06
 Reference value :  8.52169e-06
 Reference value :  8.52581e-06
 Reference value :  8.52877e-06
 Reference value :  8.53149e-06
 Reference value :  8.53571e-06
 Reference value :  8.54014e-06
 Reference value :  8.54952e-06
 Reference value :  8.57781e-06
 Reference value :  8.65259e-06
 Reference value :  8.75013e-06
 Reference value :  8.75021e-06
 Reference value :  8.75032e-06
 Reference value :  8.75098e-06
 Reference value :  8.75185e-06
 Reference value :  8.75297e-06
 Reference value :  8.75515e-06
 Reference value :  8.78467e-06
 Reference value :  9.00007e-06
 Reference value :  9.00034e-06
 Reference value :  9.00158e-06
 Reference value :  9.00341e-06
 Reference value :  9.00655e-06
 Reference value :  9.01151e-06
 Reference value :  9.01279e-06
 Reference value :  9.01603e-06
 Reference value :  9.02651e-06
 Reference value :  9.08033e-06
 Reference value :  9.25011e-06
 Reference value :  9.25017e-06
 Reference value :  9.25022e-06
 Reference value :  9.25045e-06
 Reference value :  9.25139e-06
 Reference value :  9.25298e-06
 Reference value :  9.25396e-06
 Reference value :  9.25501e-06
 Reference value :  9.25660e-06
 Reference value :  9.26972e-06
 Reference value :  9.35651e-06
 Reference value :  9.50001e-06
 Reference value :  9.50010e-06
 Reference value :  9.50016e-06
 Reference value :  9.50034e-06
 Reference value :  9.50083e-06
 Reference value :  9.50158e-06
 Reference value :  9.50289e-06
 Reference value :  9.50396e-06
 Reference value :  9.50500e-06
 Reference value :  9.50709e-06
 Reference value :  9.51119e-06
 Reference value :  9.51323e-06
 Reference value :  9.51525e-06
 Reference value :  9.52078e-06
 Reference value :  9.54982e-06
 Reference value :  9.75010e-06
 Reference value :  9.75020e-06
 Reference value :  9.75032e-06
 Reference value :  9.75098e-06
 Reference value :  9.75186e-06
 Reference value :  9.75299e-06
 Reference value :  9.75398e-06
 Reference value :  9.75523e-06
 Reference value :  9.75888e-06
 Reference value :  9.78665e-06
 Reference value :  9.98699e-06
 Reference value :  1.00001e-05
 Reference value :  1.00002e-05
 Reference value :  1.00005e-05
 Reference value :  1.00016e-05
 Reference value :  1.00029e-05
 Reference value :  1.00040e-05
 Reference value :  1.00055e-05
 Reference value :  1.00062e-05
 Reference value :  1.00077e-05
 Reference value :  1.00109e-05
 Reference value :  1.00295e-05
 Reference value :  1.02501e-05
 Reference value :  1.02502e-05
 Reference value :  1.02503e-05
 Reference value :  1.02510e-05
 Reference value :  1.02519e-05
 Reference value :  1.02530e-05
 Reference value :  1.02540e-05
 Reference value :  1.02550e-05
 Reference value :  1.02566e-05
 Reference value :  1.02698e-05
 Reference value :  1.04573e-05
 Reference value :  1.05000e-05
 Reference value :  1.05001e-05
 Reference value :  1.05002e-05
 Reference value :  1.05008e-05
 Reference value :  1.05016e-05
 Reference value :  1.05029e-05
 Reference value :  1.05040e-05
 Reference value :  1.05050e-05
 Reference value :  1.05071e-05
 Reference value :  1.05112e-05
 Reference value :  1.05122e-05
 Reference value :  1.05143e-05
 Reference value :  1.05152e-05
 Reference value :  1.05174e-05
 Reference value :  1.05239e-05
 Reference value :  1.05498e-05
 Reference value :  1.06981e-05
 Reference value :  1.07501e-05
 Reference value :  1.07502e-05
 Reference value :  1.07504e-05
 Reference value :  1.07514e-05
 Reference value :  1.07530e-05
 Reference value :  1.07540e-05
 Reference value :  1.07552e-05
 Reference value :  1.07574e-05
 Reference value :  1.07652e-05
 Reference value :  1.08153e-05
 Reference value :  1.10000e-05
 Reference value :  1.10000e-05
 Reference value :  1.10001e-05
 Reference value :  1.10002e-05
 Reference value :  1.10005e-05
 Reference value :  1.10012e-05
 Reference value :  1.10020e-05
 Reference value :  1.10029e-05
 Reference value :  1.10040e-05
 Reference value :  1.10055e-05
 Reference value :  1.10062e-05
 Reference value :  1.10077e-05
 Reference value :  1.10109e-05
 Reference value :  1.10294e-05
 Reference value :  1.12501e-05
 Reference value :  1.12502e-05
 Reference value :  1.12503e-05
 Reference value :  1.12510e-05
 Reference value :  1.12519e-05
 Reference value :  1.12534e-05
 Reference value :  1.12545e-05
 Reference value :  1.12566e-05
 Reference value :  1.12824e-05
 Reference value :  1.15000e-05
 Reference value :  1.15001e-05
 Reference value :  1.15002e-05
 Reference value :  1.15008e-05
 Reference value :  1.15016e-05
 Reference value :  1.15029e-05
 Reference value :  1.15040e-05
 Reference value :  1.15050e-05
 Reference value :  1.15063e-05
 Reference value :  1.15085e-05
 Reference value :  1.15112e-05
 Reference value :  1.15122e-05
 Reference value :  1.15143e-05
 Reference value :  1.15163e-05
 Reference value :  1.15208e-05
 Reference value :  1.15388e-05
 Reference value :  1.15469e-05
 Reference value :  1.15630e-05
 Reference value :  1.15992e-05
 Reference value :  1.16678e-05
 Reference value :  1.17501e-05
 Reference value :  1.17502e-05
 Reference value :  1.17503e-05
 Reference value :  1.17510e-05
 Reference value :  1.17519e-05
 Reference value :  1.17530e-05
 Reference value :  1.17539e-05
 Reference value :  1.17559e-05
 Reference value :  1.17615e-05
 Reference value :  1.18133e-05
 Reference value :  1.20000e-05
 Reference value :  1.20001e-05
 Reference value :  1.20002e-05
 Reference value :  1.20005e-05
 Reference value :  1.20015e-05
 Reference value :  1.20028e-05
 Reference value :  1.20039e-05
 Reference value :  1.20060e-05
 Reference value :  1.20075e-05
 Reference value :  1.20103e-05
 Reference value :  1.20316e-05
 Reference value :  1.21427e-05
 Reference value :  1.22502e-05
 Reference value :  1.22503e-05
 Reference value :  1.22514e-05
 Reference value :  1.22530e-05
 Reference value :  1.22540e-05
 Reference value :  1.22550e-05
 Reference value :  1.22566e-05
 Reference value :  1.22596e-05
 Reference value :  1.22899e-05
 Reference value :  1.25000e-05
 Reference value :  1.25001e-05
 Reference value :  1.25003e-05
 Reference value :  1.25012e-05
 Reference value :  1.25024e-05
 Reference value :  1.25039e-05
 Reference value :  1.25053e-05
 Reference value :  1.25076e-05
 Reference value :  1.25102e-05
 Reference value :  1.25119e-05
 Reference value :  1.25155e-05
 Reference value :  1.25214e-05
 Reference value :  1.25237e-05
 Reference value :  1.25268e-05
 Reference value :  1.25325e-05
 Reference value :  1.25547e-05
 Reference value :  1.26122e-05
 Reference value :  1.27501e-05
 Reference value :  1.27503e-05
 Reference value :  1.27514e-05
 Reference value :  1.27535e-05
 Reference value :  1.27552e-05
 Reference value :  1.27616e-05
 Reference value :  1.28153e-05
 Reference value :  1.30000e-05
 Reference value :  1.30001e-05
 Reference value :  1.30005e-05
 Reference value :  1.30016e-05
 Reference value :  1.30029e-05
 Reference value :  1.30047e-05
 Reference value :  1.30062e-05
 Reference value :  1.30077e-05
 Reference value :  1.30109e-05
 Reference value :  1.30296e-05
 Reference value :  1.32501e-05
 Reference value :  1.32502e-05
 Reference value :  1.32504e-05
 Reference value :  1.32514e-05
 Reference value :  1.32523e-05
 Reference value :  1.32534e-05
 Reference value :  1.32545e-05
 Reference value :  1.32558e-05
 Reference value :  1.32582e-05
 Reference value :  1.32698e-05
 Reference value :  1.33565e-05
 Reference value :  1.35000e-05
 Reference value :  1.35001e-05
 Reference value :  1.35001e-05
 Reference value :  1.35002e-05
 Reference value :  1.35008e-05
 Reference value :  1.35020e-05
 Reference value :  1.35029e-05
 Reference value :  1.35045e-05
 Reference value :  1.35055e-05
 Reference value :  1.35085e-05
 Reference value :  1.35112e-05
 Reference value :  1.35132e-05
 Reference value :  1.35152e-05
 Reference value :  1.35191e-05
 Reference value :  1.35287e-05
 Reference value :  1.35333e-05
 Reference value :  1.35474e-05
 Reference value :  1.35706e-05
 Reference value :  1.36079e-05
 Reference value :  1.36384e-05
 Reference value :  1.36602e-05
 Reference value :  1.36783e-05
 Reference value :  1.37501e-05
 Reference value :  1.37502e-05
 Reference value :  1.37503e-05
 Reference value :  1.37510e-05
 Reference value :  1.37519e-05
 Reference value :  1.37530e-05
 Reference value :  1.37540e-05
 Reference value :  1.37552e-05
 Reference value :  1.37589e-05
 Reference value :  1.37866e-05
 Reference value :  1.40000e-05
 Reference value :  1.40001e-05
 Reference value :  1.40002e-05
 Reference value :  1.40005e-05
 Reference value :  1.40016e-05
 Reference value :  1.40029e-05
 Reference value :  1.40047e-05
 Reference value :  1.40062e-05
 Reference value :  1.40077e-05
 Reference value :  1.40125e-05
 Reference value :  1.40821e-05
 Reference value :  1.42501e-05
 Reference value :  1.42502e-05
 Reference value :  1.42507e-05
 Reference value :  1.42514e-05
 Reference value :  1.42523e-05
 Reference value :  1.42534e-05
 Reference value :  1.42545e-05
 Reference value :  1.42558e-05
 Reference value :  1.42636e-05
 Reference value :  1.43572e-05
 Reference value :  1.45001e-05
 Reference value :  1.45001e-05
 Reference value :  1.45003e-05
 Reference value :  1.45012e-05
 Reference value :  1.45020e-05
 Reference value :  1.45029e-05
 Reference value :  1.45045e-05
 Reference value :  1.45055e-05
 Reference value :  1.45085e-05
 Reference value :  1.45112e-05
 Reference value :  1.45132e-05
 Reference value :  1.45152e-05
 Reference value :  1.45174e-05
 Reference value :  1.45239e-05
 Reference value :  1.45280e-05
 Reference value :  1.45310e-05
 Reference value :  1.45370e-05
 Reference value :  1.45473e-05
 Reference value :  1.45631e-05
 Reference value :  1.46230e-05
 Reference value :  1.47501e-05
 Reference value :  1.47502e-05
 Reference value :  1.47504e-05
 Reference value :  1.47514e-05
 Reference value :  1.47530e-05
 Reference value :  1.47552e-05
 Reference value :  1.47648e-05
 Reference value :  1.49755e-05
 Reference value :  1.50001e-05
 Reference value :  1.50002e-05
 Reference value :  1.50008e-05
 Reference value :  1.50015e-05
 Reference value :  1.50028e-05
 Reference value :  1.50046e-05
 Reference value :  1.50060e-05
 Reference value :  1.50084e-05
 Reference value :  1.50136e-05
 Reference value :  1.50806e-05
 Reference value :  1.52501e-05
 Reference value :  1.52503e-05
 Reference value :  1.52510e-05
 Reference value :  1.52523e-05
 Reference value :  1.52534e-05
 Reference value :  1.52550e-05
 Reference value :  1.52575e-05
 Reference value :  1.52610e-05
 Reference value :  1.53204e-05
 Reference value :  1.55018e-05
 Reference value :  1.55074e-05
 Reference value :  1.55107e-05
 Reference value :  1.55119e-05
 Reference value :  1.55141e-05
 Reference value :  1.55166e-05
 Reference value :  1.55197e-05
 Reference value :  1.55264e-05
 Reference value :  1.55798e-05
 Reference value :  1.57501e-05
 Reference value :  1.57502e-05
 Reference value :  1.57502e-05
 Reference value :  1.57507e-05
 Reference value :  1.57514e-05
 Reference value :  1.57522e-05
 Reference value :  1.57532e-05
 Reference value :  1.57549e-05
 Reference value :  1.57565e-05
 Reference value :  1.57773e-05
 Reference value :  1.60000e-05
 Reference value :  1.60001e-05
 Reference value :  1.60001e-05
 Reference value :  1.60003e-05
 Reference value :  1.60008e-05
 Reference value :  1.60016e-05
 Reference value :  1.60029e-05
 Reference value :  1.60047e-05
 Reference value :  1.60062e-05
 Reference value :  1.60077e-05
 Reference value :  1.60125e-05
 Reference value :  1.60458e-05
 Reference value :  1.62501e-05
 Reference value :  1.62502e-05
 Reference value :  1.62504e-05
 Reference value :  1.62514e-05
 Reference value :  1.62530e-05
 Reference value :  1.62540e-05
 Reference value :  1.62550e-05
 Reference value :  1.62582e-05
 Reference value :  1.63072e-05
 Reference value :  1.65000e-05
 Reference value :  1.65001e-05
 Reference value :  1.65005e-05
 Reference value :  1.65016e-05
 Reference value :  1.65029e-05
 Reference value :  1.65040e-05
 Reference value :  1.65050e-05
 Reference value :  1.65064e-05
 Reference value :  1.65088e-05
 Reference value :  1.65226e-05
 Reference value :  1.67325e-05
 Reference value :  1.67502e-05
 Reference value :  1.67503e-05
 Reference value :  1.67507e-05
 Reference value :  1.67514e-05
 Reference value :  1.67530e-05
 Reference value :  1.67553e-05
 Reference value :  1.67577e-05
 Reference value :  1.67662e-05
 Reference value :  1.68217e-05
 Reference value :  1.70021e-05
 Reference value :  1.70086e-05
 Reference value :  1.70155e-05
 Reference value :  1.70230e-05
 Reference value :  1.70258e-05
 Reference value :  1.70301e-05
 Reference value :  1.70348e-05
 Reference value :  1.70456e-05
 Reference value :  1.70791e-05
 Reference value :  1.72501e-05
 Reference value :  1.72502e-05
 Reference value :  1.72503e-05
 Reference value :  1.72514e-05
 Reference value :  1.72522e-05
 Reference value :  1.72533e-05
 Reference value :  1.72548e-05
 Reference value :  1.72579e-05
 Reference value :  1.72918e-05
 Reference value :  1.75000e-05
 Reference value :  1.75001e-05
 Reference value :  1.75002e-05
 Reference value :  1.75008e-05
 Reference value :  1.75016e-05
 Reference value :  1.75029e-05
 Reference value :  1.75047e-05
 Reference value :  1.75065e-05
 Reference value :  1.75090e-05
 Reference value :  1.75115e-05
 Reference value :  1.75141e-05
 Reference value :  1.75179e-05
 Reference value :  1.75361e-05
 Reference value :  1.77501e-05
 Reference value :  1.77502e-05
 Reference value :  1.77502e-05
 Reference value :  1.77504e-05
 Reference value :  1.77514e-05
 Reference value :  1.77523e-05
 Reference value :  1.77534e-05
 Reference value :  1.77545e-05
 Reference value :  1.77558e-05
 Reference value :  1.77602e-05
 Reference value :  1.78070e-05
 Reference value :  1.80007e-05
 Reference value :  1.80030e-05
 Reference value :  1.80044e-05
 Reference value :  1.80056e-05
 Reference value :  1.80080e-05
 Reference value :  1.80108e-05
 Reference value :  1.80130e-05
 Reference value :  1.80148e-05
 Reference value :  1.80180e-05
 Reference value :  1.80253e-05
 Reference value :  1.80907e-05
 Reference value :  1.82501e-05
 Reference value :  1.82502e-05
 Reference value :  1.82504e-05
 Reference value :  1.82514e-05
 Reference value :  1.82530e-05
 Reference value :  1.82539e-05
 Reference value :  1.82558e-05
 Reference value :  1.82644e-05
 Reference value :  1.83601e-05
 Reference value :  1.85000e-05
 Reference value :  1.85001e-05
 Reference value :  1.85002e-05
 Reference value :  1.85008e-05
 Reference value :  1.85016e-05
 Reference value :  1.85024e-05
 Reference value :  1.85034e-05
 Reference value :  1.85047e-05
 Reference value :  1.85062e-05
 Reference value :  1.85077e-05
 Reference value :  1.85096e-05
 Reference value :  1.85204e-05
 Reference value :  1.86503e-05
 Reference value :  1.87502e-05
 Reference value :  1.87502e-05
 Reference value :  1.87507e-05
 Reference value :  1.87514e-05
 Reference value :  1.87530e-05
 Reference value :  1.87540e-05
 Reference value :  1.87550e-05
 Reference value :  1.87566e-05
 Reference value :  1.87700e-05
 Reference value :  1.89608e-05
 Reference value :  1.90001e-05
 Reference value :  1.90001e-05
 Reference value :  1.90003e-05
 Reference value :  1.90012e-05
 Reference value :  1.90020e-05
 Reference value :  1.90029e-05
 Reference value :  1.90045e-05
 Reference value :  1.90055e-05
 Reference value :  1.90085e-05
 Reference value :  1.90112e-05
 Reference value :  1.90132e-05
 Reference value :  1.90152e-05
 Reference value :  1.90190e-05
 Reference value :  1.90351e-05
 Reference value :  1.91855e-05
 Reference value :  1.92501e-05
 Reference value :  1.92502e-05
 Reference value :  1.92503e-05
 Reference value :  1.92510e-05
 Reference value :  1.92519e-05
 Reference value :  1.92530e-05
 Reference value :  1.92540e-05
 Reference value :  1.92552e-05
 Reference value :  1.92589e-05
 Reference value :  1.92867e-05
 Reference value :  1.94877e-05
 Reference value :  1.95002e-05
 Reference value :  1.95009e-05
 Reference value :  1.95015e-05
 Reference value :  1.95027e-05
 Reference value :  1.95038e-05
 Reference value :  1.95052e-05
 Reference value :  1.95058e-05
 Reference value :  1.95073e-05
 Reference value :  1.95090e-05
 Reference value :  1.95099e-05
 Reference value :  1.95132e-05
 Reference value :  1.95361e-05
 Reference value :  1.97171e-05
 Reference value :  1.97501e-05
 Reference value :  1.97502e-05
 Reference value :  1.97503e-05
 Reference value :  1.97507e-05
 Reference value :  1.97514e-05
 Reference value :  1.97523e-05
 Reference value :  1.97534e-05
 Reference value :  1.97545e-05
 Reference value :  1.97558e-05
 Reference value :  1.97602e-05
 Reference value :  1.97817e-05
 Reference value :  1.99521e-05
 Reference value :  2.00000e-05
 Reference value :  2.00001e-05
 Reference value :  2.00002e-05
 Reference value :  2.00003e-05
 Reference value :  2.00008e-05
 Reference value :  2.00016e-05
 Reference value :  2.00024e-05
 Reference value :  2.00029e-05
 Reference value :  2.00040e-05
 Reference value :  2.00050e-05
 Reference value :  2.00063e-05
 Reference value :  2.00085e-05
 Reference value :  2.00112e-05
 Reference value :  2.00122e-05
 Reference value :  2.00143e-05
 Reference value :  2.00152e-05
 Reference value :  2.00174e-05
 Reference value :  2.00208e-05
 Reference value :  2.00334e-05
 Reference value :  2.00403e-05
 Reference value :  2.00496e-05
 Reference value :  2.00664e-05
 Reference value :  2.01092e-05
 Reference value :  2.02259e-05
 Reference value :  2.02501e-05
 Reference value :  2.02502e-05
 Reference value :  2.02503e-05
 Reference value :  2.02510e-05
 Reference value :  2.02519e-05
 Reference value :  2.02530e-05
 Reference value :  2.02539e-05
 Reference value :  2.02559e-05
 Reference value :  2.02615e-05
 Reference value :  2.03132e-05
 Reference value :  2.05000e-05
 Reference value :  2.05004e-05
 Reference value :  2.05015e-05
 Reference value :  2.05023e-05
 Reference value :  2.05034e-05
 Reference value :  2.05048e-05
 Reference value :  2.05064e-05
 Reference value :  2.05080e-05
 Reference value :  2.05097e-05
 Reference value :  2.05225e-05
 Reference value :  2.05928e-05
 Reference value :  2.07501e-05
 Reference value :  2.07502e-05
 Reference value :  2.07503e-05
 Reference value :  2.07507e-05
 Reference value :  2.07514e-05
 Reference value :  2.07523e-05
 Reference value :  2.07534e-05
 Reference value :  2.07545e-05
 Reference value :  2.07558e-05
 Reference value :  2.07583e-05
 Reference value :  2.07610e-05
 Reference value :  2.07748e-05
 Reference value :  2.08787e-05
 Reference value :  2.10000e-05
 Reference value :  2.10001e-05
 Reference value :  2.10002e-05
 Reference value :  2.10005e-05
 Reference value :  2.10012e-05
 Reference value :  2.10020e-05
 Reference value :  2.10029e-05
 Reference value :  2.10039e-05
 Reference value :  2.10048e-05
 Reference value :  2.10059e-05
 Reference value :  2.10076e-05
 Reference value :  2.10093e-05
 Reference value :  2.10111e-05
 Reference value :  2.10136e-05
 Reference value :  2.10163e-05
 Reference value :  2.10206e-05
 Reference value :  2.10272e-05
 Reference value :  2.10341e-05
 Reference value :  2.10792e-05
 Reference value :  2.12501e-05
 Reference value :  2.12502e-05
 Reference value :  2.12503e-05
 Reference value :  2.12514e-05
 Reference value :  2.12530e-05
 Reference value :  2.12546e-05
 Reference value :  2.12616e-05
 Reference value :  2.13728e-05
 Reference value :  2.15001e-05
 Reference value :  2.15002e-05
 Reference value :  2.15012e-05
 Reference value :  2.15029e-05
 Reference value :  2.15047e-05
 Reference value :  2.15062e-05
 Reference value :  2.15087e-05
 Reference value :  2.15295e-05
 Reference value :  2.17501e-05
 Reference value :  2.17503e-05
 Reference value :  2.17514e-05
 Reference value :  2.17534e-05
 Reference value :  2.17558e-05
 Reference value :  2.18069e-05
 Reference value :  2.20008e-05
 Reference value :  2.20031e-05
 Reference value :  2.20045e-05
 Reference value :  2.20056e-05
 Reference value :  2.20080e-05
 Reference value :  2.20109e-05
 Reference value :  2.20131e-05
 Reference value :  2.20149e-05
 Reference value :  2.20170e-05
 Reference value :  2.20265e-05
 Reference value :  2.20385e-05
 Reference value :  2.20475e-05
 Reference value :  2.20663e-05
 Reference value :  2.20939e-05
 Reference value :  2.21296e-05
 Reference value :  2.21590e-05
 Reference value :  2.21685e-05
 Reference value :  2.21897e-05
 Reference value :  2.22261e-05
 Reference value :  2.22501e-05
 Reference value :  2.22502e-05
 Reference value :  2.22504e-05
 Reference value :  2.22514e-05
 Reference value :  2.22530e-05
 Reference value :  2.22539e-05
 Reference value :  2.22559e-05
 Reference value :  2.22646e-05
 Reference value :  2.23623e-05
 Reference value :  2.25000e-05
 Reference value :  2.25001e-05
 Reference value :  2.25003e-05
 Reference value :  2.25012e-05
 Reference value :  2.25020e-05
 Reference value :  2.25029e-05
 Reference value :  2.25040e-05
 Reference value :  2.25062e-05
 Reference value :  2.25077e-05
 Reference value :  2.25096e-05
 Reference value :  2.25155e-05
 Reference value :  2.25467e-05
 Reference value :  2.27501e-05
 Reference value :  2.27502e-05
 Reference value :  2.27503e-05
 Reference value :  2.27507e-05
 Reference value :  2.27514e-05
 Reference value :  2.27523e-05
 Reference value :  2.27534e-05
 Reference value :  2.27545e-05
 Reference value :  2.27566e-05
 Reference value :  2.27824e-05
 Reference value :  2.30000e-05
 Reference value :  2.30007e-05
 Reference value :  2.30029e-05
 Reference value :  2.30042e-05
 Reference value :  2.30054e-05
 Reference value :  2.30077e-05
 Reference value :  2.30090e-05
 Reference value :  2.30118e-05
 Reference value :  2.30128e-05
 Reference value :  2.30148e-05
 Reference value :  2.30170e-05
 Reference value :  2.30201e-05
 Reference value :  2.30294e-05
 Reference value :  2.30358e-05
 Reference value :  2.30418e-05
 Reference value :  2.30568e-05
 Reference value :  2.30895e-05
 Reference value :  2.32501e-05
 Reference value :  2.32502e-05
 Reference value :  2.32503e-05
 Reference value :  2.32507e-05
 Reference value :  2.32514e-05
 Reference value :  2.32523e-05
 Reference value :  2.32534e-05
 Reference value :  2.32551e-05
 Reference value :  2.32587e-05
 Reference value :  2.32845e-05
 Reference value :  2.35000e-05
 Reference value :  2.35001e-05
 Reference value :  2.35002e-05
 Reference value :  2.35008e-05
 Reference value :  2.35015e-05
 Reference value :  2.35028e-05
 Reference value :  2.35046e-05
 Reference value :  2.35060e-05
 Reference value :  2.35075e-05
 Reference value :  2.35103e-05
 Reference value :  2.35167e-05
 Reference value :  2.35797e-05
 Reference value :  2.37501e-05
 Reference value :  2.37502e-05
 Reference value :  2.37504e-05
 Reference value :  2.37514e-05
 Reference value :  2.37530e-05
 Reference value :  2.37540e-05
 Reference value :  2.37550e-05
 Reference value :  2.37566e-05
 Reference value :  2.37596e-05
 Reference value :  2.37747e-05
 Reference value :  2.39965e-05
 Reference value :  2.40000e-05
 Reference value :  2.40001e-05
 Reference value :  2.40002e-05
 Reference value :  2.40008e-05
 Reference value :  2.40016e-05
 Reference value :  2.40024e-05
 Reference value :  2.40034e-05
 Reference value :  2.40044e-05
 Reference value :  2.40053e-05
 Reference value :  2.40076e-05
 Reference value :  2.40093e-05
 Reference value :  2.40111e-05
 Reference value :  2.40126e-05
 Reference value :  2.40162e-05
 Reference value :  2.40187e-05
 Reference value :  2.40239e-05
 Reference value :  2.40291e-05
 Reference value :  2.40385e-05
 Reference value :  2.40595e-05
 Reference value :  2.41859e-05
 Reference value :  2.42501e-05
 Reference value :  2.42502e-05
 Reference value :  2.42503e-05
 Reference value :  2.42507e-05
 Reference value :  2.42514e-05
 Reference value :  2.42523e-05
 Reference value :  2.42535e-05
 Reference value :  2.42546e-05
 Reference value :  2.42560e-05
 Reference value :  2.42616e-05
 Reference value :  2.42867e-05
 Reference value :  2.44872e-05
 Reference value :  2.45000e-05
 Reference value :  2.45001e-05
 Reference value :  2.45002e-05
 Reference value :  2.45008e-05
 Reference value :  2.45016e-05
 Reference value :  2.45024e-05
 Reference value :  2.45029e-05
 Reference value :  2.45040e-05
 Reference value :  2.45055e-05
 Reference value :  2.45062e-05
 Reference value :  2.45077e-05
 Reference value :  2.45096e-05
 Reference value :  2.45204e-05
 Reference value :  2.46503e-05
 Reference value :  2.47501e-05
 Reference value :  2.47502e-05
 Reference value :  2.47503e-05
 Reference value :  2.47507e-05
 Reference value :  2.47514e-05
 Reference value :  2.47523e-05
 Reference value :  2.47534e-05
 Reference value :  2.47545e-05
 Reference value :  2.47558e-05
 Reference value :  2.47635e-05
 Reference value :  2.48067e-05
 Reference value :  2.50000e-05
 Reference value :  2.50001e-05
 Reference value :  2.50003e-05
 Reference value :  2.50012e-05
 Reference value :  2.50020e-05
 Reference value :  2.50029e-05
 Reference value :  2.50045e-05
 Reference value :  2.50056e-05
 Reference value :  2.50079e-05
 Reference value :  2.50156e-05
 Reference value :  2.51206e-05
 Reference value :  2.52502e-05
 Reference value :  2.52503e-05
 Reference value :  2.52510e-05
 Reference value :  2.52519e-05
 Reference value :  2.52536e-05
 Reference value :  2.52562e-05
 Reference value :  2.52749e-05
 Reference value :  2.55021e-05
 Reference value :  2.55086e-05
 Reference value :  2.55189e-05
 Reference value :  2.55230e-05
 Reference value :  2.55258e-05
 Reference value :  2.55282e-05
 Reference value :  2.55317e-05
 Reference value :  2.55370e-05
 Reference value :  2.55457e-05
 Reference value :  2.55593e-05
 Reference value :  2.56204e-05
 Reference value :  2.57501e-05
 Reference value :  2.57502e-05
 Reference value :  2.57503e-05
 Reference value :  2.57510e-05
 Reference value :  2.57518e-05
 Reference value :  2.57533e-05
 Reference value :  2.57548e-05
 Reference value :  2.57565e-05
 Reference value :  2.57768e-05
 Reference value :  2.60000e-05
 Reference value :  2.60001e-05
 Reference value :  2.60002e-05
 Reference value :  2.60005e-05
 Reference value :  2.60012e-05
 Reference value :  2.60020e-05
 Reference value :  2.60029e-05
 Reference value :  2.60040e-05
 Reference value :  2.60065e-05
 Reference value :  2.60090e-05
 Reference value :  2.60115e-05
 Reference value :  2.60141e-05
 Reference value :  2.60264e-05
 Reference value :  2.62501e-05
 Reference value :  2.62502e-05
 Reference value :  2.62502e-05
 Reference value :  2.62507e-05
 Reference value :  2.62519e-05
 Reference value :  2.62534e-05
 Reference value :  2.62550e-05
 Reference value :  2.62602e-05
 Reference value :  2.64560e-05
 Reference value :  2.65007e-05
 Reference value :  2.65030e-05
 Reference value :  2.65044e-05
 Reference value :  2.65062e-05
 Reference value :  2.65094e-05
 Reference value :  2.65121e-05
 Reference value :  2.65148e-05
 Reference value :  2.65180e-05
 Reference value :  2.65401e-05
 Reference value :  2.67263e-05
 Reference value :  2.67502e-05
 Reference value :  2.67504e-05
 Reference value :  2.67514e-05
 Reference value :  2.67530e-05
 Reference value :  2.67545e-05
 Reference value :  2.67612e-05
 Reference value :  2.69620e-05
 Reference value :  2.70001e-05
 Reference value :  2.70003e-05
 Reference value :  2.70016e-05
 Reference value :  2.70034e-05
 Reference value :  2.70062e-05
 Reference value :  2.70096e-05
 Reference value :  2.70466e-05
 Reference value :  2.72501e-05
 Reference value :  2.72503e-05
 Reference value :  2.72514e-05
 Reference value :  2.72534e-05
 Reference value :  2.72550e-05
 Reference value :  2.72603e-05
 Reference value :  2.74609e-05
 Reference value :  2.75001e-05
 Reference value :  2.75005e-05
 Reference value :  2.75016e-05
 Reference value :  2.75034e-05
 Reference value :  2.75050e-05
 Reference value :  2.75085e-05
 Reference value :  2.75112e-05
 Reference value :  2.75132e-05
 Reference value :  2.75162e-05
 Reference value :  2.75282e-05
 Reference value :  2.76855e-05
 Reference value :  2.77502e-05
 Reference value :  2.77503e-05
 Reference value :  2.77514e-05
 Reference value :  2.77534e-05
 Reference value :  2.77560e-05
 Reference value :  2.77724e-05
 Reference value :  2.79877e-05
 Reference value :  2.80002e-05
 Reference value :  2.80009e-05
 Reference value :  2.80015e-05
 Reference value :  2.80027e-05
 Reference value :  2.80045e-05
 Reference value :  2.80058e-05
 Reference value :  2.80082e-05
 Reference value :  2.80099e-05
 Reference value :  2.80231e-05
 Reference value :  2.82170e-05
 Reference value :  2.82501e-05
 Reference value :  2.82502e-05
 Reference value :  2.82504e-05
 Reference value :  2.82514e-05
 Reference value :  2.82530e-05
 Reference value :  2.82534e-05
 Reference value :  2.82545e-05
 Reference value :  2.82558e-05
 Reference value :  2.82602e-05
 Reference value :  2.83061e-05
 Reference value :  2.85000e-05
 Reference value :  2.85001e-05
 Reference value :  2.85001e-05
 Reference value :  2.85003e-05
 Reference value :  2.85012e-05
 Reference value :  2.85020e-05
 Reference value :  2.85029e-05
 Reference value :  2.85040e-05
 Reference value :  2.85050e-05
 Reference value :  2.85071e-05
 Reference value :  2.85100e-05
 Reference value :  2.85122e-05
 Reference value :  2.85143e-05
 Reference value :  2.85163e-05
 Reference value :  2.85208e-05
 Reference value :  2.85338e-05
 Reference value :  2.85448e-05
 Reference value :  2.85611e-05
 Reference value :  2.85967e-05
 Reference value :  2.86691e-05
 Reference value :  2.87501e-05
 Reference value :  2.87502e-05
 Reference value :  2.87503e-05
 Reference value :  2.87510e-05
 Reference value :  2.87519e-05
 Reference value :  2.87530e-05
 Reference value :  2.87539e-05
 Reference value :  2.87559e-05
 Reference value :  2.87615e-05
 Reference value :  2.88132e-05
 Reference value :  2.90004e-05
 Reference value :  2.90015e-05
 Reference value :  2.90023e-05
 Reference value :  2.90034e-05
 Reference value :  2.90048e-05
 Reference value :  2.90064e-05
 Reference value :  2.90080e-05
 Reference value :  2.90097e-05
 Reference value :  2.90165e-05
 Reference value :  2.90929e-05
 Reference value :  2.92501e-05
 Reference value :  2.92502e-05
 Reference value :  2.92503e-05
 Reference value :  2.92510e-05
 Reference value :  2.92519e-05
 Reference value :  2.92530e-05
 Reference value :  2.92534e-05
 Reference value :  2.92545e-05
 Reference value :  2.92558e-05
 Reference value :  2.92583e-05
 Reference value :  2.92610e-05
 Reference value :  2.92748e-05
 Reference value :  2.93787e-05
 Reference value :  2.95000e-05
 Reference value :  2.95001e-05
 Reference value :  2.95002e-05
 Reference value :  2.95005e-05
 Reference value :  2.95012e-05
 Reference value :  2.95020e-05
 Reference value :  2.95029e-05
 Reference value :  2.95039e-05
 Reference value :  2.95048e-05
 Reference value :  2.95066e-05
 Reference value :  2.95084e-05
 Reference value :  2.95102e-05
 Reference value :  2.95119e-05
 Reference value :  2.95136e-05
 Reference value :  2.95154e-05
 Reference value :  2.95173e-05
 Reference value :  2.95206e-05
 Reference value :  2.95261e-05
 Reference value :  2.95282e-05
 Reference value :  2.95300e-05
 Reference value :  2.95338e-05
 Reference value :  2.95432e-05
 Reference value :  2.95721e-05
 Reference value :  2.96185e-05
 Reference value :  2.97501e-05
 Reference value :  2.97502e-05
 Reference value :  2.97502e-05
 Reference value :  2.97504e-05
 Reference value :  2.97510e-05
 Reference value :  2.97519e-05
 Reference value :  2.97530e-05
 Reference value :  2.97540e-05
 Reference value :  2.97552e-05
 Reference value :  2.97589e-05
 Reference value :  2.97867e-05
 Reference value :  3.00000e-05
 Reference value :  3.00001e-05
 Reference value :  3.00001e-05
 Reference value :  3.00003e-05
 Reference value :  3.00012e-05
 Reference value :  3.00020e-05
 Reference value :  3.00029e-05
 Reference value :  3.00040e-05
 Reference value :  3.00055e-05
 Reference value :  3.00062e-05
 Reference value :  3.00077e-05
 Reference value :  3.00096e-05
 Reference value :  3.00155e-05
 Reference value :  3.00471e-05
 Reference value :  3.02501e-05
 Reference value :  3.02502e-05
 Reference value :  3.02503e-05
 Reference value :  3.02507e-05
 Reference value :  3.02514e-05
 Reference value :  3.02523e-05
 Reference value :  3.02534e-05
 Reference value :  3.02545e-05
 Reference value :  3.02558e-05
 Reference value :  3.02636e-05
 Reference value :  3.04553e-05
 Reference value :  3.05008e-05
 Reference value :  3.05031e-05
 Reference value :  3.05045e-05
 Reference value :  3.05051e-05
 Reference value :  3.05062e-05
 Reference value :  3.05096e-05
 Reference value :  3.05109e-05
 Reference value :  3.05131e-05
 Reference value :  3.05149e-05
 Reference value :  3.05170e-05
 Reference value :  3.05222e-05
 Reference value :  3.05319e-05
 Reference value :  3.05433e-05
 Reference value :  3.05550e-05
 Reference value :  3.05745e-05
 Reference value :  3.06503e-05
 Reference value :  3.07197e-05
 Reference value :  3.07501e-05
 Reference value :  3.07501e-05
 Reference value :  3.07502e-05
 Reference value :  3.07504e-05
 Reference value :  3.07514e-05
 Reference value :  3.07530e-05
 Reference value :  3.07539e-05
 Reference value :  3.07559e-05
 Reference value :  3.07711e-05
 Reference value :  3.10000e-05
 Reference value :  3.10001e-05
 Reference value :  3.10002e-05
 Reference value :  3.10008e-05
 Reference value :  3.10016e-05
 Reference value :  3.10029e-05
 Reference value :  3.10040e-05
 Reference value :  3.10055e-05
 Reference value :  3.10062e-05
 Reference value :  3.10077e-05
 Reference value :  3.10096e-05
 Reference value :  3.10155e-05
 Reference value :  3.10470e-05
 Reference value :  3.12501e-05
 Reference value :  3.12502e-05
 Reference value :  3.12502e-05
 Reference value :  3.12504e-05
 Reference value :  3.12510e-05
 Reference value :  3.12519e-05
 Reference value :  3.12530e-05
 Reference value :  3.12534e-05
 Reference value :  3.12545e-05
 Reference value :  3.12558e-05
 Reference value :  3.12603e-05
 Reference value :  3.12824e-05
 Reference value :  3.14580e-05
 Reference value :  3.15000e-05
 Reference value :  3.15001e-05
 Reference value :  3.15001e-05
 Reference value :  3.15003e-05
 Reference value :  3.15016e-05
 Reference value :  3.15029e-05
 Reference value :  3.15045e-05
 Reference value :  3.15055e-05
 Reference value :  3.15085e-05
 Reference value :  3.15112e-05
 Reference value :  3.15132e-05
 Reference value :  3.15152e-05
 Reference value :  3.15191e-05
 Reference value :  3.15280e-05
 Reference value :  3.15310e-05
 Reference value :  3.15368e-05
 Reference value :  3.15435e-05
 Reference value :  3.15523e-05
 Reference value :  3.15691e-05
 Reference value :  3.16600e-05
 Reference value :  3.17501e-05
 Reference value :  3.17502e-05
 Reference value :  3.17507e-05
 Reference value :  3.17514e-05
 Reference value :  3.17530e-05
 Reference value :  3.17539e-05
 Reference value :  3.17559e-05
 Reference value :  3.17648e-05
 Reference value :  3.18662e-05
 Reference value :  3.20000e-05
 Reference value :  3.20001e-05
 Reference value :  3.20002e-05
 Reference value :  3.20008e-05
 Reference value :  3.20015e-05
 Reference value :  3.20023e-05
 Reference value :  3.20028e-05
 Reference value :  3.20039e-05
 Reference value :  3.20053e-05
 Reference value :  3.20060e-05
 Reference value :  3.20075e-05
 Reference value :  3.20102e-05
 Reference value :  3.20225e-05
 Reference value :  3.21516e-05
 Reference value :  3.22501e-05
 Reference value :  3.22502e-05
 Reference value :  3.22504e-05
 Reference value :  3.22514e-05
 Reference value :  3.22523e-05
 Reference value :  3.22534e-05
 Reference value :  3.22545e-05
 Reference value :  3.22558e-05
 Reference value :  3.22583e-05
 Reference value :  3.22636e-05
 Reference value :  3.23187e-05
 Reference value :  3.25000e-05
 Reference value :  3.25001e-05
 Reference value :  3.25002e-05
 Reference value :  3.25008e-05
 Reference value :  3.25016e-05
 Reference value :  3.25024e-05
 Reference value :  3.25034e-05
 Reference value :  3.25044e-05
 Reference value :  3.25053e-05
 Reference value :  3.25076e-05
 Reference value :  3.25093e-05
 Reference value :  3.25102e-05
 Reference value :  3.25119e-05
 Reference value :  3.25143e-05
 Reference value :  3.25172e-05
 Reference value :  3.25219e-05
 Reference value :  3.25312e-05
 Reference value :  3.25509e-05
 Reference value :  3.26157e-05
 Reference value :  3.27501e-05
 Reference value :  3.27502e-05
 Reference value :  3.27502e-05
 Reference value :  3.27504e-05
 Reference value :  3.27510e-05
 Reference value :  3.27519e-05
 Reference value :  3.27530e-05
 Reference value :  3.27540e-05
 Reference value :  3.27560e-05
 Reference value :  3.27618e-05
 Reference value :  3.28168e-05
 Reference value :  3.29110e-05
 Reference value :  3.30000e-05
 Reference value :  3.30001e-05
 Reference value :  3.30002e-05
 Reference value :  3.30005e-05
 Reference value :  3.30015e-05
 Reference value :  3.30028e-05
 Reference value :  3.30039e-05
 Reference value :  3.30054e-05
 Reference value :  3.30060e-05
 Reference value :  3.30075e-05
 Reference value :  3.30103e-05
 Reference value :  3.30167e-05
 Reference value :  3.30473e-05
 Reference value :  3.32501e-05
 Reference value :  3.32502e-05
 Reference value :  3.32502e-05
 Reference value :  3.32504e-05
 Reference value :  3.32514e-05
 Reference value :  3.32530e-05
 Reference value :  3.32540e-05
 Reference value :  3.32550e-05
 Reference value :  3.32566e-05
 Reference value :  3.32596e-05
 Reference value :  3.32744e-05
 Reference value :  3.33758e-05
 Reference value :  3.35002e-05
 Reference value :  3.35006e-05
 Reference value :  3.35014e-05
 Reference value :  3.35021e-05
 Reference value :  3.35026e-05
 Reference value :  3.35035e-05
 Reference value :  3.35046e-05
 Reference value :  3.35065e-05
 Reference value :  3.35080e-05
 Reference value :  3.35094e-05
 Reference value :  3.35134e-05
 Reference value :  3.35172e-05
 Reference value :  3.35195e-05
 Reference value :  3.35211e-05
 Reference value :  3.35250e-05
 Reference value :  3.35359e-05
 Reference value :  3.35968e-05
 Reference value :  3.37501e-05
 Reference value :  3.37502e-05
 Reference value :  3.37504e-05
 Reference value :  3.37514e-05
 Reference value :  3.37530e-05
 Reference value :  3.37553e-05
 Reference value :  3.37591e-05
 Reference value :  3.37911e-05
 Reference value :  3.40000e-05
 Reference value :  3.40001e-05
 Reference value :  3.40002e-05
 Reference value :  3.40014e-05
 Reference value :  3.40028e-05
 Reference value :  3.40039e-05
 Reference value :  3.40049e-05
 Reference value :  3.40074e-05
 Reference value :  3.40217e-05
 Reference value :  3.40258e-05
 Reference value :  3.40314e-05
 Reference value :  3.40380e-05
 Reference value :  3.40500e-05
 Reference value :  3.40803e-05
 Reference value :  3.42088e-05
 Reference value :  3.42502e-05
 Reference value :  3.42503e-05
 Reference value :  3.42507e-05
 Reference value :  3.42514e-05
 Reference value :  3.42530e-05
 Reference value :  3.42540e-05
 Reference value :  3.42551e-05
 Reference value :  3.42587e-05
 Reference value :  3.43113e-05
 Reference value :  3.45000e-05
 Reference value :  3.45001e-05
 Reference value :  3.45003e-05
 Reference value :  3.45012e-05
 Reference value :  3.45020e-05
 Reference value :  3.45029e-05
 Reference value :  3.45047e-05
 Reference value :  3.45065e-05
 Reference value :  3.45101e-05
 Reference value :  3.45115e-05
 Reference value :  3.45141e-05
 Reference value :  3.45180e-05
 Reference value :  3.45360e-05
 Reference value :  3.46382e-05
 Reference value :  3.47501e-05
 Reference value :  3.47502e-05
 Reference value :  3.47503e-05
 Reference value :  3.47507e-05
 Reference value :  3.47514e-05
 Reference value :  3.47530e-05
 Reference value :  3.47540e-05
 Reference value :  3.47550e-05
 Reference value :  3.47566e-05
 Reference value :  3.47697e-05
 Reference value :  3.49559e-05
 Reference value :  3.50001e-05
 Reference value :  3.50001e-05
 Reference value :  3.50003e-05
 Reference value :  3.50012e-05
 Reference value :  3.50020e-05
 Reference value :  3.50029e-05
 Reference value :  3.50040e-05
 Reference value :  3.50050e-05
 Reference value :  3.50063e-05
 Reference value :  3.50085e-05
 Reference value :  3.50112e-05
 Reference value :  3.50122e-05
 Reference value :  3.50143e-05
 Reference value :  3.50153e-05
 Reference value :  3.50174e-05
 Reference value :  3.50240e-05
 Reference value :  3.50498e-05
 Reference value :  3.51205e-05
 Reference value :  3.52501e-05
 Reference value :  3.52501e-05
 Reference value :  3.52502e-05
 Reference value :  3.52503e-05
 Reference value :  3.52507e-05
 Reference value :  3.52514e-05
 Reference value :  3.52530e-05
 Reference value :  3.52540e-05
 Reference value :  3.52560e-05
 Reference value :  3.52616e-05
 Reference value :  3.53153e-05
 Reference value :  3.55000e-05
 Reference value :  3.55001e-05
 Reference value :  3.55003e-05
 Reference value :  3.55012e-05
 Reference value :  3.55024e-05
 Reference value :  3.55034e-05
 Reference value :  3.55062e-05
 Reference value :  3.55086e-05
 Reference value :  3.55205e-05
 Reference value :  3.57501e-05
 Reference value :  3.57502e-05
 Reference value :  3.57504e-05
 Reference value :  3.57514e-05
 Reference value :  3.57530e-05
 Reference value :  3.57545e-05
 Reference value :  3.57582e-05
 Reference value :  3.58073e-05
 Reference value :  3.60007e-05
 Reference value :  3.60029e-05
 Reference value :  3.60043e-05
 Reference value :  3.60055e-05
 Reference value :  3.60078e-05
 Reference value :  3.60105e-05
 Reference value :  3.60130e-05
 Reference value :  3.60161e-05
 Reference value :  3.60205e-05
 Reference value :  3.60656e-05
 Reference value :  3.62501e-05
 Reference value :  3.62502e-05
 Reference value :  3.62504e-05
 Reference value :  3.62514e-05
 Reference value :  3.62529e-05
 Reference value :  3.62539e-05
 Reference value :  3.62551e-05
 Reference value :  3.62585e-05
 Reference value :  3.62830e-05
 Reference value :  3.65000e-05
 Reference value :  3.65001e-05
 Reference value :  3.65002e-05
 Reference value :  3.65005e-05
 Reference value :  3.65016e-05
 Reference value :  3.65029e-05
 Reference value :  3.65040e-05
 Reference value :  3.65055e-05
 Reference value :  3.65069e-05
 Reference value :  3.65086e-05
 Reference value :  3.65125e-05
 Reference value :  3.65458e-05
 Reference value :  3.67501e-05
 Reference value :  3.67502e-05
 Reference value :  3.67504e-05
 Reference value :  3.67514e-05
 Reference value :  3.67530e-05
 Reference value :  3.67540e-05
 Reference value :  3.67550e-05
 Reference value :  3.67582e-05
 Reference value :  3.67826e-05
 Reference value :  3.70000e-05
 Reference value :  3.70001e-05
 Reference value :  3.70002e-05
 Reference value :  3.70005e-05
 Reference value :  3.70008e-05
 Reference value :  3.70012e-05
 Reference value :  3.70024e-05
 Reference value :  3.70034e-05
 Reference value :  3.70050e-05
 Reference value :  3.70071e-05
 Reference value :  3.70100e-05
 Reference value :  3.70112e-05
 Reference value :  3.70122e-05
 Reference value :  3.70143e-05
 Reference value :  3.70163e-05
 Reference value :  3.70208e-05
 Reference value :  3.70329e-05
 Reference value :  3.70429e-05
 Reference value :  3.70526e-05
 Reference value :  3.70707e-05
 Reference value :  3.71046e-05
 Reference value :  3.71816e-05
 Reference value :  3.72501e-05
 Reference value :  3.72502e-05
 Reference value :  3.72503e-05
 Reference value :  3.72510e-05
 Reference value :  3.72519e-05
 Reference value :  3.72530e-05
 Reference value :  3.72539e-05
 Reference value :  3.72559e-05
 Reference value :  3.72615e-05
 Reference value :  3.72856e-05
 Reference value :  3.75000e-05
 Reference value :  3.75001e-05
 Reference value :  3.75001e-05
 Reference value :  3.75003e-05
 Reference value :  3.75012e-05
 Reference value :  3.75019e-05
 Reference value :  3.75028e-05
 Reference value :  3.75046e-05
 Reference value :  3.75060e-05
 Reference value :  3.75075e-05
 Reference value :  3.75103e-05
 Reference value :  3.75167e-05
 Reference value :  3.75475e-05
 Reference value :  3.77501e-05
 Reference value :  3.77502e-05
 Reference value :  3.77503e-05
 Reference value :  3.77510e-05
 Reference value :  3.77519e-05
 Reference value :  3.77530e-05
 Reference value :  3.77534e-05
 Reference value :  3.77545e-05
 Reference value :  3.77558e-05
 Reference value :  3.77584e-05
 Reference value :  3.77611e-05
 Reference value :  3.77749e-05
 Reference value :  3.78799e-05
 Reference value :  3.80000e-05
 Reference value :  3.80001e-05
 Reference value :  3.80002e-05
 Reference value :  3.80008e-05
 Reference value :  3.80016e-05
 Reference value :  3.80024e-05
 Reference value :  3.80034e-05
 Reference value :  3.80039e-05
 Reference value :  3.80048e-05
 Reference value :  3.80066e-05
 Reference value :  3.80084e-05
 Reference value :  3.80102e-05
 Reference value :  3.80119e-05
 Reference value :  3.80136e-05
 Reference value :  3.80155e-05
 Reference value :  3.80177e-05
 Reference value :  3.80239e-05
 Reference value :  3.80298e-05
 Reference value :  3.80320e-05
 Reference value :  3.80392e-05
 Reference value :  3.80580e-05
 Reference value :  3.81008e-05
 Reference value :  3.82501e-05
 Reference value :  3.82502e-05
 Reference value :  3.82503e-05
 Reference value :  3.82510e-05
 Reference value :  3.82519e-05
 Reference value :  3.82535e-05
 Reference value :  3.82552e-05
 Reference value :  3.82616e-05
 Reference value :  3.83727e-05
 Reference value :  3.85002e-05
 Reference value :  3.85009e-05
 Reference value :  3.85019e-05
 Reference value :  3.85028e-05
 Reference value :  3.85046e-05
 Reference value :  3.85060e-05
 Reference value :  3.85084e-05
 Reference value :  3.85113e-05
 Reference value :  3.85534e-05
 Reference value :  3.87501e-05
 Reference value :  3.87502e-05
 Reference value :  3.87502e-05
 Reference value :  3.87504e-05
 Reference value :  3.87514e-05
 Reference value :  3.87523e-05
 Reference value :  3.87534e-05
 Reference value :  3.87550e-05
 Reference value :  3.87602e-05
 Reference value :  3.89550e-05
 Reference value :  3.90001e-05
 Reference value :  3.90003e-05
 Reference value :  3.90016e-05
 Reference value :  3.90029e-05
 Reference value :  3.90050e-05
 Reference value :  3.90085e-05
 Reference value :  3.90122e-05
 Reference value :  3.90152e-05
 Reference value :  3.90287e-05
 Reference value :  3.90377e-05
 Reference value :  3.90566e-05
 Reference value :  3.91436e-05
 Reference value :  3.92502e-05
 Reference value :  3.92503e-05
 Reference value :  3.92514e-05
 Reference value :  3.92530e-05
 Reference value :  3.92539e-05
 Reference value :  3.92573e-05
 Reference value :  3.92857e-05
 Reference value :  3.94248e-05
 Reference value :  3.95000e-05
 Reference value :  3.95001e-05
 Reference value :  3.95002e-05
 Reference value :  3.95008e-05
 Reference value :  3.95016e-05
 Reference value :  3.95029e-05
 Reference value :  3.95040e-05
 Reference value :  3.95055e-05
 Reference value :  3.95062e-05
 Reference value :  3.95077e-05
 Reference value :  3.95109e-05
 Reference value :  3.95293e-05
 Reference value :  3.96161e-05
 Reference value :  3.97501e-05
 Reference value :  3.97502e-05
 Reference value :  3.97503e-05
 Reference value :  3.97510e-05
 Reference value :  3.97519e-05
 Reference value :  3.97530e-05
 Reference value :  3.97534e-05
 Reference value :  3.97545e-05
 Reference value :  3.97558e-05
 Reference value :  3.97603e-05
 Reference value :  3.97823e-05
 Reference value :  3.99571e-05
 Reference value :  4.00000e-05
 Reference value :  4.00001e-05
 Reference value :  4.00002e-05
 Reference value :  4.00003e-05
 Reference value :  4.00008e-05
 Reference value :  4.00016e-05
 Reference value :  4.00029e-05
 Reference value :  4.00045e-05
 Reference value :  4.00055e-05
 Reference value :  4.00085e-05
 Reference value :  4.00112e-05
 Reference value :  4.00132e-05
 Reference value :  4.00152e-05
 Reference value :  4.00174e-05
 Reference value :  4.00240e-05
 Reference value :  4.00280e-05
 Reference value :  4.00310e-05
 Reference value :  4.00336e-05
 Reference value :  4.00393e-05
 Reference value :  4.00478e-05
 Reference value :  4.00670e-05
 Reference value :  4.01041e-05
 Reference value :  4.02501e-05
 Reference value :  4.02501e-05
 Reference value :  4.02502e-05
 Reference value :  4.02502e-05
 Reference value :  4.02503e-05
 Reference value :  4.02507e-05
 Reference value :  4.02514e-05
 Reference value :  4.02523e-05
 Reference value :  4.02534e-05
 Reference value :  4.02546e-05
 Reference value :  4.02560e-05
 Reference value :  4.02615e-05
 Reference value :  4.02858e-05
 Reference value :  4.04803e-05
 Reference value :  4.05000e-05
 Reference value :  4.05001e-05
 Reference value :  4.05002e-05
 Reference value :  4.05008e-05
 Reference value :  4.05019e-05
 Reference value :  4.05028e-05
 Reference value :  4.05046e-05
 Reference value :  4.05060e-05
 Reference value :  4.05075e-05
 Reference value :  4.05103e-05
 Reference value :  4.05221e-05
 Reference value :  4.06425e-05
 Reference value :  4.07502e-05
 Reference value :  4.07503e-05
 Reference value :  4.07507e-05
 Reference value :  4.07519e-05
 Reference value :  4.07534e-05
 Reference value :  4.07545e-05
 Reference value :  4.07558e-05
 Reference value :  4.07584e-05
 Reference value :  4.07636e-05
 Reference value :  4.08196e-05
 Reference value :  4.10000e-05
 Reference value :  4.10002e-05
 Reference value :  4.10012e-05
 Reference value :  4.10024e-05
 Reference value :  4.10034e-05
 Reference value :  4.10048e-05
 Reference value :  4.10075e-05
 Reference value :  4.10102e-05
 Reference value :  4.10119e-05
 Reference value :  4.10145e-05
 Reference value :  4.10176e-05
 Reference value :  4.10253e-05
 Reference value :  4.11341e-05
 Reference value :  4.12502e-05
 Reference value :  4.12503e-05
 Reference value :  4.12514e-05
 Reference value :  4.12530e-05
 Reference value :  4.12540e-05
 Reference value :  4.12575e-05
 Reference value :  4.12876e-05
 Reference value :  4.15000e-05
 Reference value :  4.15001e-05
 Reference value :  4.15003e-05
 Reference value :  4.15008e-05
 Reference value :  4.15015e-05
 Reference value :  4.15023e-05
 Reference value :  4.15033e-05
 Reference value :  4.15054e-05
 Reference value :  4.15066e-05
 Reference value :  4.15084e-05
 Reference value :  4.15114e-05
 Reference value :  4.15221e-05
 Reference value :  4.16421e-05
 Reference value :  4.17501e-05
 Reference value :  4.17502e-05
 Reference value :  4.17507e-05
 Reference value :  4.17514e-05
 Reference value :  4.17530e-05
 Reference value :  4.17540e-05
 Reference value :  4.17550e-05
 Reference value :  4.17566e-05
 Reference value :  4.17596e-05
 Reference value :  4.17747e-05
 Reference value :  4.19970e-05
 Reference value :  4.20001e-05
 Reference value :  4.20002e-05
 Reference value :  4.20005e-05
 Reference value :  4.20012e-05
 Reference value :  4.20020e-05
 Reference value :  4.20029e-05
 Reference value :  4.20039e-05
 Reference value :  4.20053e-05
 Reference value :  4.20074e-05
 Reference value :  4.20099e-05
 Reference value :  4.20175e-05
 Reference value :  4.20378e-05
 Reference value :  4.20547e-05
 Reference value :  4.21078e-05
 Reference value :  4.22501e-05
 Reference value :  4.22502e-05
 Reference value :  4.22507e-05
 Reference value :  4.22514e-05
 Reference value :  4.22523e-05
 Reference value :  4.22530e-05
 Reference value :  4.22545e-05
 Reference value :  4.22553e-05
 Reference value :  4.22577e-05
 Reference value :  4.22619e-05
 Reference value :  4.22750e-05
 Reference value :  4.23217e-05
 Reference value :  4.25000e-05
 Reference value :  4.25000e-05
 Reference value :  4.25001e-05
 Reference value :  4.25002e-05
 Reference value :  4.25003e-05
 Reference value :  4.25009e-05
 Reference value :  4.25014e-05
 Reference value :  4.25023e-05
 Reference value :  4.25034e-05
 Reference value :  4.25044e-05
 Reference value :  4.25055e-05
 Reference value :  4.25088e-05
 Reference value :  4.25217e-05
 Reference value :  4.25258e-05
 Reference value :  4.25287e-05
 Reference value :  4.25336e-05
 Reference value :  4.25378e-05
 Reference value :  4.25457e-05
 Reference value :  4.25603e-05
 Reference value :  4.25993e-05
 Reference value :  4.26942e-05
 Reference value :  4.27501e-05
 Reference value :  4.27502e-05
 Reference value :  4.27503e-05
 Reference value :  4.27507e-05
 Reference value :  4.27514e-05
 Reference value :  4.27523e-05
 Reference value :  4.27530e-05
 Reference value :  4.27534e-05
 Reference value :  4.27545e-05
 Reference value :  4.27559e-05
 Reference value :  4.27587e-05
 Reference value :  4.27714e-05
 Reference value :  4.28645e-05
 Reference value :  4.30000e-05
 Reference value :  4.30000e-05
 Reference value :  4.30001e-05
 Reference value :  4.30002e-05
 Reference value :  4.30003e-05
 Reference value :  4.30008e-05
 Reference value :  4.30016e-05
 Reference value :  4.30024e-05
 Reference value :  4.30034e-05
 Reference value :  4.30066e-05
 Reference value :  4.30115e-05
 Reference value :  4.30160e-05
 Reference value :  4.30802e-05
 Reference value :  4.32502e-05
 Reference value :  4.32503e-05
 Reference value :  4.32514e-05
 Reference value :  4.32530e-05
 Reference value :  4.32540e-05
 Reference value :  4.32545e-05
 Reference value :  4.32558e-05
 Reference value :  4.32582e-05
 Reference value :  4.32697e-05
 Reference value :  4.35000e-05
 Reference value :  4.35007e-05
 Reference value :  4.35030e-05
 Reference value :  4.35044e-05
 Reference value :  4.35056e-05
 Reference value :  4.35094e-05
 Reference value :  4.35121e-05
 Reference value :  4.35139e-05
 Reference value :  4.35158e-05
 Reference value :  4.35201e-05
 Reference value :  4.35337e-05
 Reference value :  4.36840e-05
 Reference value :  4.37501e-05
 Reference value :  4.37502e-05
 Reference value :  4.37503e-05
 Reference value :  4.37510e-05
 Reference value :  4.37519e-05
 Reference value :  4.37530e-05
 Reference value :  4.37539e-05
 Reference value :  4.37545e-05
 Reference value :  4.37572e-05
 Reference value :  4.37837e-05
 Reference value :  4.40000e-05
 Reference value :  4.40001e-05
 Reference value :  4.40002e-05
 Reference value :  4.40008e-05
 Reference value :  4.40016e-05
 Reference value :  4.40029e-05
 Reference value :  4.40040e-05
 Reference value :  4.40055e-05
 Reference value :  4.40062e-05
 Reference value :  4.40077e-05
 Reference value :  4.40096e-05
 Reference value :  4.40204e-05
 Reference value :  4.40809e-05
 Reference value :  4.42501e-05
 Reference value :  4.42502e-05
 Reference value :  4.42502e-05
 Reference value :  4.42504e-05
 Reference value :  4.42510e-05
 Reference value :  4.42519e-05
 Reference value :  4.42530e-05
 Reference value :  4.42540e-05
 Reference value :  4.42550e-05
 Reference value :  4.42566e-05
 Reference value :  4.42699e-05
 Reference value :  4.43581e-05
 Reference value :  4.45000e-05
 Reference value :  4.45001e-05
 Reference value :  4.45002e-05
 Reference value :  4.45008e-05
 Reference value :  4.45016e-05
 Reference value :  4.45029e-05
 Reference value :  4.45040e-05
 Reference value :  4.45050e-05
 Reference value :  4.45071e-05
 Reference value :  4.45100e-05
 Reference value :  4.45112e-05
 Reference value :  4.45132e-05
 Reference value :  4.45152e-05
 Reference value :  4.45191e-05
 Reference value :  4.45288e-05
 Reference value :  4.46200e-05
 Reference value :  4.47501e-05
 Reference value :  4.47502e-05
 Reference value :  4.47503e-05
 Reference value :  4.47507e-05
 Reference value :  4.47514e-05
 Reference value :  4.47530e-05
 Reference value :  4.47546e-05
 Reference value :  4.47574e-05
 Reference value :  4.47652e-05
 Reference value :  4.48153e-05
 Reference value :  4.50000e-05
 Reference value :  4.50001e-05
 Reference value :  4.50001e-05
 Reference value :  4.50002e-05
 Reference value :  4.50008e-05
 Reference value :  4.50016e-05
 Reference value :  4.50029e-05
 Reference value :  4.50040e-05
 Reference value :  4.50055e-05
 Reference value :  4.50062e-05
 Reference value :  4.50077e-05
 Reference value :  4.50096e-05
 Reference value :  4.50205e-05
 Reference value :  4.51514e-05
 Reference value :  4.52502e-05
 Reference value :  4.52502e-05
 Reference value :  4.52507e-05
 Reference value :  4.52514e-05
 Reference value :  4.52530e-05
 Reference value :  4.52540e-05
 Reference value :  4.52550e-05
 Reference value :  4.52566e-05
 Reference value :  4.52699e-05
 Reference value :  4.54574e-05
 Reference value :  4.55001e-05
 Reference value :  4.55002e-05
 Reference value :  4.55005e-05
 Reference value :  4.55012e-05
 Reference value :  4.55020e-05
 Reference value :  4.55029e-05
 Reference value :  4.55045e-05
 Reference value :  4.55055e-05
 Reference value :  4.55085e-05
 Reference value :  4.55112e-05
 Reference value :  4.55132e-05
 Reference value :  4.55152e-05
 Reference value :  4.55174e-05
 Reference value :  4.55240e-05
 Reference value :  4.55326e-05
 Reference value :  4.55416e-05
 Reference value :  4.55500e-05
 Reference value :  4.55601e-05
 Reference value :  4.55802e-05
 Reference value :  4.56320e-05
 Reference value :  4.56836e-05
 Reference value :  4.57501e-05
 Reference value :  4.57501e-05
 Reference value :  4.57502e-05
 Reference value :  4.57503e-05
 Reference value :  4.57510e-05
 Reference value :  4.57519e-05
 Reference value :  4.57530e-05
 Reference value :  4.57539e-05
 Reference value :  4.57553e-05
 Reference value :  4.57588e-05
 Reference value :  4.57718e-05
 Reference value :  4.59791e-05
 Reference value :  4.60004e-05
 Reference value :  4.60015e-05
 Reference value :  4.60028e-05
 Reference value :  4.60039e-05
 Reference value :  4.60056e-05
 Reference value :  4.60070e-05
 Reference value :  4.60086e-05
 Reference value :  4.60127e-05
 Reference value :  4.60333e-05
 Reference value :  4.61643e-05
 Reference value :  4.62501e-05
 Reference value :  4.62502e-05
 Reference value :  4.62503e-05
 Reference value :  4.62507e-05
 Reference value :  4.62514e-05
 Reference value :  4.62530e-05
 Reference value :  4.62534e-05
 Reference value :  4.62545e-05
 Reference value :  4.62558e-05
 Reference value :  4.62583e-05
 Reference value :  4.62610e-05
 Reference value :  4.62895e-05
 Reference value :  4.65000e-05
 Reference value :  4.65001e-05
 Reference value :  4.65005e-05
 Reference value :  4.65016e-05
 Reference value :  4.65029e-05
 Reference value :  4.65039e-05
 Reference value :  4.65053e-05
 Reference value :  4.65066e-05
 Reference value :  4.65076e-05
 Reference value :  4.65093e-05
 Reference value :  4.65102e-05
 Reference value :  4.65127e-05
 Reference value :  4.65155e-05
 Reference value :  4.65194e-05
 Reference value :  4.65309e-05
 Reference value :  4.65352e-05
 Reference value :  4.65443e-05
 Reference value :  4.65682e-05
 Reference value :  4.65966e-05
 Reference value :  4.66774e-05
 Reference value :  4.67501e-05
 Reference value :  4.67502e-05
 Reference value :  4.67503e-05
 Reference value :  4.67507e-05
 Reference value :  4.67514e-05
 Reference value :  4.67530e-05
 Reference value :  4.67534e-05
 Reference value :  4.67546e-05
 Reference value :  4.67560e-05
 Reference value :  4.67616e-05
 Reference value :  4.67866e-05
 Reference value :  4.69869e-05
 Reference value :  4.70000e-05
 Reference value :  4.70001e-05
 Reference value :  4.70002e-05
 Reference value :  4.70008e-05
 Reference value :  4.70020e-05
 Reference value :  4.70029e-05
 Reference value :  4.70040e-05
 Reference value :  4.70055e-05
 Reference value :  4.70069e-05
 Reference value :  4.70087e-05
 Reference value :  4.70125e-05
 Reference value :  4.70296e-05
 Reference value :  4.72501e-05
 Reference value :  4.72502e-05
 Reference value :  4.72502e-05
 Reference value :  4.72504e-05
 Reference value :  4.72510e-05
 Reference value :  4.72514e-05
 Reference value :  4.72523e-05
 Reference value :  4.72534e-05
 Reference value :  4.72545e-05
 Reference value :  4.72558e-05
 Reference value :  4.72636e-05
 Reference value :  4.73565e-05
 Reference value :  4.75000e-05
 Reference value :  4.75001e-05
 Reference value :  4.75002e-05
 Reference value :  4.75008e-05
 Reference value :  4.75020e-05
 Reference value :  4.75029e-05
 Reference value :  4.75040e-05
 Reference value :  4.75050e-05
 Reference value :  4.75071e-05
 Reference value :  4.75100e-05
 Reference value :  4.75112e-05
 Reference value :  4.75132e-05
 Reference value :  4.75163e-05
 Reference value :  4.75287e-05
 Reference value :  4.75333e-05
 Reference value :  4.75417e-05
 Reference value :  4.75460e-05
 Reference value :  4.75559e-05
 Reference value :  4.76443e-05
 Reference value :  4.77502e-05
 Reference value :  4.77503e-05
 Reference value :  4.77514e-05
 Reference value :  4.77534e-05
 Reference value :  4.77559e-05
 Reference value :  4.77719e-05
 Reference value :  4.80000e-05
 Reference value :  4.80001e-05
 Reference value :  4.80003e-05
 Reference value :  4.80015e-05
 Reference value :  4.80028e-05
 Reference value :  4.80046e-05
 Reference value :  4.80060e-05
 Reference value :  4.80075e-05
 Reference value :  4.80103e-05
 Reference value :  4.80316e-05
 Reference value :  4.82501e-05
 Reference value :  4.82502e-05
 Reference value :  4.82503e-05
 Reference value :  4.82510e-05
 Reference value :  4.82519e-05
 Reference value :  4.82530e-05
 Reference value :  4.82540e-05
 Reference value :  4.82550e-05
 Reference value :  4.82566e-05
 Reference value :  4.82596e-05
 Reference value :  4.82748e-05
 Reference value :  4.84978e-05
 Reference value :  4.85001e-05
 Reference value :  4.85002e-05
 Reference value :  4.85005e-05
 Reference value :  4.85012e-05
 Reference value :  4.85020e-05
 Reference value :  4.85029e-05
 Reference value :  4.85039e-05
 Reference value :  4.85048e-05
 Reference value :  4.85059e-05
 Reference value :  4.85076e-05
 Reference value :  4.85093e-05
 Reference value :  4.85102e-05
 Reference value :  4.85119e-05
 Reference value :  4.85135e-05
 Reference value :  4.85163e-05
 Reference value :  4.85181e-05
 Reference value :  4.85212e-05
 Reference value :  4.85314e-05
 Reference value :  4.85662e-05
 Reference value :  4.87501e-05
 Reference value :  4.87502e-05
 Reference value :  4.87503e-05
 Reference value :  4.87507e-05
 Reference value :  4.87514e-05
 Reference value :  4.87530e-05
 Reference value :  4.87540e-05
 Reference value :  4.87552e-05
 Reference value :  4.87589e-05
 Reference value :  4.87723e-05
 Reference value :  4.88721e-05
 Reference value :  4.90000e-05
 Reference value :  4.90001e-05
 Reference value :  4.90001e-05
 Reference value :  4.90003e-05
 Reference value :  4.90008e-05
 Reference value :  4.90016e-05
 Reference value :  4.90024e-05
 Reference value :  4.90029e-05
 Reference value :  4.90040e-05
 Reference value :  4.90055e-05
 Reference value :  4.90062e-05
 Reference value :  4.90077e-05
 Reference value :  4.90096e-05
 Reference value :  4.90155e-05
 Reference value :  4.90468e-05
 Reference value :  4.92501e-05
 Reference value :  4.92501e-05
 Reference value :  4.92502e-05
 Reference value :  4.92504e-05
 Reference value :  4.92510e-05
 Reference value :  4.92514e-05
 Reference value :  4.92523e-05
 Reference value :  4.92530e-05
 Reference value :  4.92534e-05
 Reference value :  4.92545e-05
 Reference value :  4.92558e-05
 Reference value :  4.92603e-05
 Reference value :  4.93071e-05
 Reference value :  4.95000e-05
 Reference value :  4.95001e-05
 Reference value :  4.95002e-05
 Reference value :  4.95003e-05
 Reference value :  4.95008e-05
 Reference value :  4.95016e-05
 Reference value :  4.95024e-05
 Reference value :  4.95029e-05
 Reference value :  4.95040e-05
 Reference value :  4.95050e-05
 Reference value :  4.95071e-05
 Reference value :  4.95100e-05
 Reference value :  4.95112e-05
 Reference value :  4.95122e-05
 Reference value :  4.95132e-05
 Reference value :  4.95143e-05
 Reference value :  4.95163e-05
 Reference value :  4.95191e-05
 Reference value :  4.95245e-05
 Reference value :  4.95325e-05
 Reference value :  4.95380e-05
 Reference value :  4.95421e-05
 Reference value :  4.95597e-05
 Reference value :  4.96013e-05
 Reference value :  4.96169e-05
 Reference value :  4.96441e-05
 Reference value :  4.96828e-05
 Reference value :  4.97501e-05
 Reference value :  4.97502e-05
 Reference value :  4.97502e-05
 Reference value :  4.97507e-05
 Reference value :  4.97514e-05
 Reference value :  4.97530e-05
 Reference value :  4.97540e-05
 Reference value :  4.97560e-05
 Reference value :  4.97652e-05
 Reference value :  4.98723e-05
 Reference value :  5.00000e-05
 Reference value :  5.00001e-05
 Reference value :  5.00002e-05
 Reference value :  5.00005e-05
 Reference value :  5.00012e-05
 Reference value :  5.00020e-05
[...]
 Reference value :  2.60019e-04
 Reference value :  2.60024e-04
 Reference value :  2.60027e-04
 Reference value :  2.60033e-04
 Reference value :  2.60058e-04
 Reference value :  2.60116e-04
 Reference value :  2.60250e-04
 Reference value :  2.60250e-04
 Reference value :  2.60250e-04
 Reference value :  2.60250e-04
 Reference value :  2.60251e-04
 Reference value :  2.60251e-04
 Reference value :  2.60252e-04
 Reference value :  2.60253e-04
 Reference value :  2.60255e-04
 Reference value :  2.60257e-04
 Reference value :  2.60272e-04
 Reference value :  2.60487e-04
 Reference value :  2.60500e-04
 Reference value :  2.60500e-04
 Reference value :  2.60500e-04
 Reference value :  2.60501e-04
 Reference value :  2.60502e-04
 Reference value :  2.60503e-04
 Reference value :  2.60504e-04
 Reference value :  2.60506e-04
 Reference value :  2.60506e-04
 Reference value :  2.60508e-04
 Reference value :  2.60511e-04
 Reference value :  2.60530e-04
 Reference value :  2.60750e-04
 Reference value :  2.60750e-04
 Reference value :  2.60750e-04
 Reference value :  2.60751e-04
 Reference value :  2.60751e-04
 Reference value :  2.60753e-04
 Reference value :  2.60754e-04
 Reference value :  2.60755e-04
 Reference value :  2.60758e-04
 Reference value :  2.60782e-04
 Reference value :  2.61000e-04
 Reference value :  2.61000e-04
 Reference value :  2.61000e-04
 Reference value :  2.61000e-04
 Reference value :  2.61001e-04
 Reference value :  2.61002e-04
 Reference value :  2.61003e-04
 Reference value :  2.61004e-04
 Reference value :  2.61006e-04
 Reference value :  2.61008e-04
 Reference value :  2.61011e-04
 Reference value :  2.61013e-04
 Reference value :  2.61015e-04
 Reference value :  2.61019e-04
 Reference value :  2.61028e-04
 Reference value :  2.61037e-04
 Reference value :  2.61043e-04
 Reference value :  2.61052e-04
 Reference value :  2.61069e-04
 Reference value :  2.61143e-04
 Reference value :  2.61250e-04
 Reference value :  2.61250e-04
 Reference value :  2.61250e-04
 Reference value :  2.61251e-04
 Reference value :  2.61251e-04
 Reference value :  2.61253e-04
 Reference value :  2.61255e-04
 Reference value :  2.61257e-04
 Reference value :  2.61272e-04
 Reference value :  2.61368e-04
 Reference value :  2.61416e-04
 Reference value :  2.61452e-04
 Reference value :  2.61500e-04
 Reference value :  2.61500e-04
 Reference value :  2.61500e-04
 Reference value :  2.61501e-04
 Reference value :  2.61502e-04
 Reference value :  2.61503e-04
 Reference value :  2.61504e-04
 Reference value :  2.61506e-04
 Reference value :  2.61507e-04
 Reference value :  2.61509e-04
 Reference value :  2.61512e-04
 Reference value :  2.61544e-04
 Reference value :  2.61750e-04
 Reference value :  2.61750e-04
 Reference value :  2.61750e-04
 Reference value :  2.61750e-04
 Reference value :  2.61751e-04
 Reference value :  2.61752e-04
 Reference value :  2.61753e-04
 Reference value :  2.61754e-04
 Reference value :  2.61755e-04
 Reference value :  2.61757e-04
 Reference value :  2.61764e-04
 Reference value :  2.61807e-04
 Reference value :  2.62000e-04
 Reference value :  2.62000e-04
 Reference value :  2.62000e-04
 Reference value :  2.62000e-04
 Reference value :  2.62001e-04
 Reference value :  2.62002e-04
 Reference value :  2.62002e-04
 Reference value :  2.62003e-04
 Reference value :  2.62004e-04
 Reference value :  2.62005e-04
 Reference value :  2.62006e-04
 Reference value :  2.62010e-04
 Reference value :  2.62011e-04
 Reference value :  2.62012e-04
 Reference value :  2.62014e-04
 Reference value :  2.62016e-04
 Reference value :  2.62019e-04
 Reference value :  2.62026e-04
 Reference value :  2.62029e-04
 Reference value :  2.62036e-04
 Reference value :  2.62049e-04
 Reference value :  2.62069e-04
 Reference value :  2.62118e-04
 Reference value :  2.62250e-04
 Reference value :  2.62250e-04
 Reference value :  2.62250e-04
 Reference value :  2.62251e-04
 Reference value :  2.62253e-04
 Reference value :  2.62254e-04
 Reference value :  2.62256e-04
 Reference value :  2.62261e-04
 Reference value :  2.62369e-04
 Reference value :  2.62500e-04
 Reference value :  2.62500e-04
 Reference value :  2.62501e-04
 Reference value :  2.62501e-04
 Reference value :  2.62502e-04
 Reference value :  2.62503e-04
 Reference value :  2.62504e-04
 Reference value :  2.62505e-04
 Reference value :  2.62507e-04
 Reference value :  2.62508e-04
 Reference value :  2.62510e-04
 Reference value :  2.62517e-04
 Reference value :  2.62547e-04
 Reference value :  2.62750e-04
 Reference value :  2.62750e-04
 Reference value :  2.62750e-04
 Reference value :  2.62751e-04
 Reference value :  2.62751e-04
 Reference value :  2.62753e-04
 Reference value :  2.62755e-04
 Reference value :  2.62757e-04
 Reference value :  2.62761e-04
 Reference value :  2.62789e-04
 Reference value :  2.63000e-04
 Reference value :  2.63000e-04
 Reference value :  2.63000e-04
 Reference value :  2.63001e-04
 Reference value :  2.63002e-04
 Reference value :  2.63003e-04
 Reference value :  2.63004e-04
 Reference value :  2.63005e-04
 Reference value :  2.63007e-04
 Reference value :  2.63009e-04
 Reference value :  2.63013e-04
 Reference value :  2.63018e-04
 Reference value :  2.63033e-04
 Reference value :  2.63057e-04
 Reference value :  2.63073e-04
 Reference value :  2.63093e-04
 Reference value :  2.63168e-04
 Reference value :  2.63250e-04
 Reference value :  2.63250e-04
 Reference value :  2.63250e-04
 Reference value :  2.63251e-04
 Reference value :  2.63253e-04
 Reference value :  2.63255e-04
 Reference value :  2.63259e-04
 Reference value :  2.63291e-04
 Reference value :  2.63500e-04
 Reference value :  2.63500e-04
 Reference value :  2.63500e-04
 Reference value :  2.63501e-04
 Reference value :  2.63503e-04
 Reference value :  2.63504e-04
 Reference value :  2.63505e-04
 Reference value :  2.63507e-04
 Reference value :  2.63522e-04
 Reference value :  2.63522e-04
 Reference value :  2.63525e-04
 Reference value :  2.63527e-04
 Reference value :  2.63530e-04
 Reference value :  2.63531e-04
 Reference value :  2.63533e-04
 Reference value :  2.63536e-04
 Reference value :  2.63543e-04
 Reference value :  2.63566e-04
 Reference value :  2.63624e-04
 Reference value :  2.63750e-04
 Reference value :  2.63750e-04
 Reference value :  2.63750e-04
 Reference value :  2.63750e-04
 Reference value :  2.63751e-04
 Reference value :  2.63752e-04
 Reference value :  2.63753e-04
 Reference value :  2.63755e-04
 Reference value :  2.63757e-04
 Reference value :  2.63771e-04
 Reference value :  2.63971e-04
 Reference value :  2.64000e-04
 Reference value :  2.64000e-04
 Reference value :  2.64000e-04
 Reference value :  2.64001e-04
 Reference value :  2.64001e-04
 Reference value :  2.64002e-04
 Reference value :  2.64003e-04
 Reference value :  2.64004e-04
 Reference value :  2.64007e-04
 Reference value :  2.64009e-04
 Reference value :  2.64012e-04
 Reference value :  2.64014e-04
 Reference value :  2.64027e-04
 Reference value :  2.64138e-04
 Reference value :  2.64250e-04
 Reference value :  2.64250e-04
 Reference value :  2.64250e-04
 Reference value :  2.64251e-04
 Reference value :  2.64251e-04
 Reference value :  2.64252e-04
 Reference value :  2.64253e-04
 Reference value :  2.64254e-04
 Reference value :  2.64256e-04
 Reference value :  2.64260e-04
 Reference value :  2.64282e-04
 Reference value :  2.64456e-04
 Reference value :  2.64500e-04
 Reference value :  2.64500e-04
 Reference value :  2.64500e-04
 Reference value :  2.64501e-04
 Reference value :  2.64502e-04
 Reference value :  2.64503e-04
 Reference value :  2.64504e-04
 Reference value :  2.64506e-04
 Reference value :  2.64508e-04
 Reference value :  2.64511e-04
 Reference value :  2.64513e-04
 Reference value :  2.64515e-04
 Reference value :  2.64519e-04
 Reference value :  2.64537e-04
 Reference value :  2.64695e-04
 Reference value :  2.64750e-04
 Reference value :  2.64750e-04
 Reference value :  2.64750e-04
 Reference value :  2.64751e-04
 Reference value :  2.64753e-04
 Reference value :  2.64754e-04
 Reference value :  2.64756e-04
 Reference value :  2.64772e-04
 Reference value :  2.64986e-04
 Reference value :  2.65000e-04
 Reference value :  2.65000e-04
 Reference value :  2.65001e-04
 Reference value :  2.65002e-04
 Reference value :  2.65003e-04
 Reference value :  2.65005e-04
 Reference value :  2.65006e-04
 Reference value :  2.65008e-04
 Reference value :  2.65012e-04
 Reference value :  2.65082e-04
 Reference value :  2.65250e-04
 Reference value :  2.65250e-04
 Reference value :  2.65251e-04
 Reference value :  2.65252e-04
 Reference value :  2.65253e-04
 Reference value :  2.65253e-04
 Reference value :  2.65254e-04
 Reference value :  2.65256e-04
 Reference value :  2.65260e-04
 Reference value :  2.65282e-04
 Reference value :  2.65458e-04
 Reference value :  2.65500e-04
 Reference value :  2.65500e-04
 Reference value :  2.65500e-04
 Reference value :  2.65501e-04
 Reference value :  2.65501e-04
 Reference value :  2.65502e-04
 Reference value :  2.65502e-04
 Reference value :  2.65503e-04
 Reference value :  2.65504e-04
 Reference value :  2.65505e-04
 Reference value :  2.65506e-04
 Reference value :  2.65508e-04
 Reference value :  2.65511e-04
 Reference value :  2.65513e-04
 Reference value :  2.65515e-04
 Reference value :  2.65519e-04
 Reference value :  2.65529e-04
 Reference value :  2.65548e-04
 Reference value :  2.65557e-04
 Reference value :  2.65562e-04
 Reference value :  2.65580e-04
 Reference value :  2.65612e-04
 Reference value :  2.65722e-04
 Reference value :  2.65750e-04
 Reference value :  2.65750e-04
 Reference value :  2.65750e-04
 Reference value :  2.65751e-04
 Reference value :  2.65751e-04
 Reference value :  2.65752e-04
 Reference value :  2.65753e-04
 Reference value :  2.65753e-04
 Reference value :  2.65755e-04
 Reference value :  2.65757e-04
 Reference value :  2.65772e-04
 Reference value :  2.65979e-04
 Reference value :  2.66000e-04
 Reference value :  2.66000e-04
 Reference value :  2.66000e-04
 Reference value :  2.66001e-04
 Reference value :  2.66002e-04
 Reference value :  2.66003e-04
 Reference value :  2.66004e-04
 Reference value :  2.66005e-04
 Reference value :  2.66007e-04
 Reference value :  2.66008e-04
 Reference value :  2.66011e-04
 Reference value :  2.66047e-04
 Reference value :  2.66250e-04
 Reference value :  2.66250e-04
 Reference value :  2.66251e-04
 Reference value :  2.66252e-04
 Reference value :  2.66253e-04
 Reference value :  2.66255e-04
 Reference value :  2.66258e-04
 Reference value :  2.66261e-04
 Reference value :  2.66290e-04
 Reference value :  2.66500e-04
 Reference value :  2.66500e-04
 Reference value :  2.66500e-04
 Reference value :  2.66500e-04
 Reference value :  2.66501e-04
 Reference value :  2.66502e-04
 Reference value :  2.66502e-04
 Reference value :  2.66503e-04
 Reference value :  2.66504e-04
 Reference value :  2.66505e-04
 Reference value :  2.66507e-04
 Reference value :  2.66508e-04
 Reference value :  2.66509e-04
 Reference value :  2.66510e-04
 Reference value :  2.66512e-04
 Reference value :  2.66514e-04
 Reference value :  2.66516e-04
 Reference value :  2.66521e-04
 Reference value :  2.66539e-04
 Reference value :  2.66546e-04
 Reference value :  2.66554e-04
 Reference value :  2.66560e-04
 Reference value :  2.66587e-04
 Reference value :  2.66700e-04
 Reference value :  2.66750e-04
 Reference value :  2.66750e-04
 Reference value :  2.66750e-04
 Reference value :  2.66751e-04
 Reference value :  2.66752e-04
 Reference value :  2.66753e-04
 Reference value :  2.66754e-04
 Reference value :  2.66755e-04
 Reference value :  2.66765e-04
 Reference value :  2.66987e-04
 Reference value :  2.67000e-04
 Reference value :  2.67000e-04
 Reference value :  2.67000e-04
 Reference value :  2.67001e-04
 Reference value :  2.67002e-04
 Reference value :  2.67004e-04
 Reference value :  2.67006e-04
 Reference value :  2.67008e-04
 Reference value :  2.67012e-04
 Reference value :  2.67082e-04
 Reference value :  2.67250e-04
 Reference value :  2.67250e-04
 Reference value :  2.67250e-04
 Reference value :  2.67251e-04
 Reference value :  2.67253e-04
 Reference value :  2.67254e-04
 Reference value :  2.67258e-04
 Reference value :  2.67307e-04
 Reference value :  2.67500e-04
 Reference value :  2.67500e-04
 Reference value :  2.67501e-04
 Reference value :  2.67502e-04
 Reference value :  2.67503e-04
 Reference value :  2.67506e-04
 Reference value :  2.67510e-04
 Reference value :  2.67512e-04
 Reference value :  2.67515e-04
 Reference value :  2.67519e-04
 Reference value :  2.67528e-04
 Reference value :  2.67532e-04
 Reference value :  2.67541e-04
 Reference value :  2.67549e-04
 Reference value :  2.67564e-04
 Reference value :  2.67607e-04
 Reference value :  2.67743e-04
 Reference value :  2.67750e-04
 Reference value :  2.67750e-04
 Reference value :  2.67750e-04
 Reference value :  2.67751e-04
 Reference value :  2.67752e-04
 Reference value :  2.67753e-04
 Reference value :  2.67754e-04
 Reference value :  2.67756e-04
 Reference value :  2.67765e-04
 Reference value :  2.67869e-04
 Reference value :  2.68000e-04
 Reference value :  2.68000e-04
 Reference value :  2.68000e-04
 Reference value :  2.68001e-04
 Reference value :  2.68002e-04
 Reference value :  2.68003e-04
 Reference value :  2.68004e-04
 Reference value :  2.68005e-04
 Reference value :  2.68006e-04
 Reference value :  2.68007e-04
 Reference value :  2.68010e-04
 Reference value :  2.68022e-04
 Reference value :  2.68143e-04
 Reference value :  2.68250e-04
 Reference value :  2.68250e-04
 Reference value :  2.68250e-04
 Reference value :  2.68251e-04
 Reference value :  2.68252e-04
 Reference value :  2.68253e-04
 Reference value :  2.68254e-04
 Reference value :  2.68255e-04
 Reference value :  2.68257e-04
 Reference value :  2.68260e-04
 Reference value :  2.68275e-04
 Reference value :  2.68500e-04
 Reference value :  2.68500e-04
 Reference value :  2.68500e-04
 Reference value :  2.68500e-04
 Reference value :  2.68501e-04
 Reference value :  2.68502e-04
 Reference value :  2.68503e-04
 Reference value :  2.68504e-04
 Reference value :  2.68505e-04
 Reference value :  2.68507e-04
 Reference value :  2.68508e-04
 Reference value :  2.68510e-04
 Reference value :  2.68512e-04
 Reference value :  2.68514e-04
 Reference value :  2.68515e-04
 Reference value :  2.68517e-04
 Reference value :  2.68523e-04
 Reference value :  2.68529e-04
 Reference value :  2.68533e-04
 Reference value :  2.68539e-04
 Reference value :  2.68565e-04
 Reference value :  2.68702e-04
 Reference value :  2.68750e-04
 Reference value :  2.68750e-04
 Reference value :  2.68750e-04
 Reference value :  2.68751e-04
 Reference value :  2.68752e-04
 Reference value :  2.68753e-04
 Reference value :  2.68755e-04
 Reference value :  2.68757e-04
 Reference value :  2.68772e-04
 Reference value :  2.68987e-04
 Reference value :  2.69000e-04
 Reference value :  2.69000e-04
 Reference value :  2.69000e-04
 Reference value :  2.69001e-04
 Reference value :  2.69002e-04
 Reference value :  2.69003e-04
 Reference value :  2.69005e-04
 Reference value :  2.69006e-04
 Reference value :  2.69009e-04
 Reference value :  2.69020e-04
 Reference value :  2.69152e-04
 Reference value :  2.69250e-04
 Reference value :  2.69250e-04
 Reference value :  2.69251e-04
 Reference value :  2.69253e-04
 Reference value :  2.69254e-04
 Reference value :  2.69255e-04
 Reference value :  2.69257e-04
 Reference value :  2.69270e-04
 Reference value :  2.69456e-04
 Reference value :  2.69500e-04
 Reference value :  2.69500e-04
 Reference value :  2.69501e-04
 Reference value :  2.69501e-04
 Reference value :  2.69502e-04
 Reference value :  2.69503e-04
 Reference value :  2.69504e-04
 Reference value :  2.69505e-04
 Reference value :  2.69507e-04
 Reference value :  2.69510e-04
 Reference value :  2.69511e-04
 Reference value :  2.69514e-04
 Reference value :  2.69516e-04
 Reference value :  2.69521e-04
 Reference value :  2.69528e-04
 Reference value :  2.69537e-04
 Reference value :  2.69544e-04
 Reference value :  2.69555e-04
 Reference value :  2.69586e-04
 Reference value :  2.69673e-04
 Reference value :  2.69750e-04
 Reference value :  2.69750e-04
 Reference value :  2.69750e-04
 Reference value :  2.69751e-04
 Reference value :  2.69752e-04
 Reference value :  2.69753e-04
 Reference value :  2.69755e-04
 Reference value :  2.69761e-04
 Reference value :  2.69813e-04
 Reference value :  2.70000e-04
 Reference value :  2.70000e-04
 Reference value :  2.70000e-04
 Reference value :  2.70001e-04
 Reference value :  2.70002e-04
 Reference value :  2.70002e-04
 Reference value :  2.70003e-04
 Reference value :  2.70004e-04
 Reference value :  2.70006e-04
 Reference value :  2.70007e-04
 Reference value :  2.70010e-04
 Reference value :  2.70022e-04
 Reference value :  2.70143e-04
 Reference value :  2.70250e-04
 Reference value :  2.70250e-04
 Reference value :  2.70251e-04
 Reference value :  2.70251e-04
 Reference value :  2.70252e-04
 Reference value :  2.70253e-04
 Reference value :  2.70254e-04
 Reference value :  2.70256e-04
 Reference value :  2.70258e-04
 Reference value :  2.70267e-04
 Reference value :  2.70379e-04
 Reference value :  2.70500e-04
 Reference value :  2.70500e-04
 Reference value :  2.70500e-04
 Reference value :  2.70501e-04
 Reference value :  2.70501e-04
 Reference value :  2.70502e-04
 Reference value :  2.70502e-04
 Reference value :  2.70503e-04
 Reference value :  2.70504e-04
 Reference value :  2.70505e-04
 Reference value :  2.70507e-04
 Reference value :  2.70508e-04
 Reference value :  2.70509e-04
 Reference value :  2.70510e-04
 Reference value :  2.70512e-04
 Reference value :  2.70514e-04
 Reference value :  2.70519e-04
 Reference value :  2.70527e-04
 Reference value :  2.70550e-04
 Reference value :  2.70558e-04
 Reference value :  2.70575e-04
 Reference value :  2.70622e-04
 Reference value :  2.70750e-04
 Reference value :  2.70750e-04
 Reference value :  2.70750e-04
 Reference value :  2.70751e-04
 Reference value :  2.70753e-04
 Reference value :  2.70754e-04
 Reference value :  2.70756e-04
 Reference value :  2.70765e-04
 Reference value :  2.70815e-04
 Reference value :  2.71000e-04
 Reference value :  2.71000e-04
 Reference value :  2.71000e-04
 Reference value :  2.71000e-04
 Reference value :  2.71001e-04
 Reference value :  2.71002e-04
 Reference value :  2.71003e-04
 Reference value :  2.71005e-04
 Reference value :  2.71006e-04
 Reference value :  2.71009e-04
 Reference value :  2.71015e-04
 Reference value :  2.71150e-04
 Reference value :  2.71250e-04
 Reference value :  2.71250e-04
 Reference value :  2.71251e-04
 Reference value :  2.71251e-04
 Reference value :  2.71252e-04
 Reference value :  2.71253e-04
 Reference value :  2.71254e-04
 Reference value :  2.71256e-04
 Reference value :  2.71260e-04
 Reference value :  2.71282e-04
 Reference value :  2.71456e-04
 Reference value :  2.71500e-04
 Reference value :  2.71500e-04
 Reference value :  2.71500e-04
 Reference value :  2.71501e-04
 Reference value :  2.71502e-04
 Reference value :  2.71502e-04
 Reference value :  2.71503e-04
 Reference value :  2.71504e-04
 Reference value :  2.71505e-04
 Reference value :  2.71506e-04
 Reference value :  2.71508e-04
 Reference value :  2.71509e-04
 Reference value :  2.71516e-04
 Reference value :  2.71564e-04
 Reference value :  2.71750e-04
 Reference value :  2.71750e-04
 Reference value :  2.71750e-04
 Reference value :  2.71750e-04
 Reference value :  2.71751e-04
 Reference value :  2.71751e-04
 Reference value :  2.71752e-04
 Reference value :  2.71754e-04
 Reference value :  2.71755e-04
 Reference value :  2.71758e-04
 Reference value :  2.71766e-04
 Reference value :  2.71822e-04
 Reference value :  2.71939e-04
 Reference value :  2.71979e-04
No. of Data Rows : 39263
ngspice-44 done
