
Note: Compatibility modes selected: hs a


Circuit: ** sch_path: /home/madra/cace/sar-adc-using-sky130-pdk/runs/run_2025-09-01_19-13-30/parameters/inl/run_3/sar_output.sch

option SCALE: Scale is set to 1e-06 for instance and model parameters
option SCALE: Scale is set to 1e-06 for instance and model parameters
option SCALE: Scale is set to 1e-06 for instance and model parameters
option SCALE: Scale is set to 1e-06 for instance and model parameters
Doing analysis at TEMP = 27.000000 and TNOM = 27.000000

Using KLU as Direct Linear Solver
Operating point simulation skipped by 'uic',
  now using transient initial conditions.
 Reference value :  1.00000e-12
 Reference value :  1.02800e-12
 Reference value :  1.42000e-12
 Reference value :  3.12294e-12
 Reference value :  1.97167e-11
 Reference value :  1.04949e-10
 Reference value :  1.74234e-10
 Reference value :  6.68918e-10
 Reference value :  1.89383e-09
 Reference value :  4.12409e-09
 Reference value :  6.07665e-09
 Reference value :  6.80046e-09
 Reference value :  8.24114e-09
 Reference value :  9.96727e-09
 Reference value :  1.08955e-08
 Reference value :  1.16818e-08
 Reference value :  1.40918e-08
 Reference value :  2.15752e-08
 Reference value :  2.99804e-08
 Reference value :  4.37912e-08
 Reference value :  9.58284e-08
 Reference value :  2.50110e-07
 Reference value :  2.50208e-07
 Reference value :  2.50315e-07
 Reference value :  2.50731e-07
 Reference value :  2.51911e-07
 Reference value :  2.53667e-07
 Reference value :  2.54222e-07
 Reference value :  2.55422e-07
 Reference value :  2.56996e-07
 Reference value :  2.62626e-07
 Reference value :  3.04346e-07
 Reference value :  5.00010e-07
 Reference value :  5.00100e-07
 Reference value :  5.00156e-07
 Reference value :  5.00518e-07
 Reference value :  5.01815e-07
 Reference value :  5.02775e-07
 Reference value :  5.03342e-07
 Reference value :  5.04594e-07
 Reference value :  5.07731e-07
 Reference value :  5.10014e-07
 Reference value :  5.11177e-07
 Reference value :  5.13779e-07
 Reference value :  5.19354e-07
 Reference value :  5.49050e-07
 Reference value :  6.21612e-07
 Reference value :  7.50100e-07
 Reference value :  7.50130e-07
 Reference value :  7.50208e-07
 Reference value :  7.50318e-07
 Reference value :  7.50597e-07
 Reference value :  7.51257e-07
 Reference value :  7.51700e-07
 Reference value :  7.52703e-07
 Reference value :  7.54007e-07
 Reference value :  7.55255e-07
 Reference value :  7.56926e-07
 Reference value :  7.62298e-07
 Reference value :  7.87826e-07
 Reference value :  9.70211e-07
 Reference value :  1.00003e-06
 Reference value :  1.00011e-06
 Reference value :  1.00022e-06
 Reference value :  1.00086e-06
 Reference value :  1.00182e-06
 Reference value :  1.00278e-06
 Reference value :  1.00390e-06
 Reference value :  1.00449e-06
 Reference value :  1.00586e-06
 Reference value :  1.00855e-06
 Reference value :  1.01010e-06
 Reference value :  1.01280e-06
 Reference value :  1.01379e-06
 Reference value :  1.01587e-06
 Reference value :  1.01802e-06
 Reference value :  1.02096e-06
 Reference value :  1.03079e-06
 Reference value :  1.07622e-06
 Reference value :  1.10450e-06
 Reference value :  1.13213e-06
 Reference value :  1.17145e-06
 Reference value :  1.18953e-06
 Reference value :  1.20667e-06
 Reference value :  1.25010e-06
 Reference value :  1.25013e-06
 Reference value :  1.25021e-06
 Reference value :  1.25032e-06
 Reference value :  1.25060e-06
 Reference value :  1.25127e-06
 Reference value :  1.25216e-06
 Reference value :  1.25345e-06
 Reference value :  1.25394e-06
 Reference value :  1.25511e-06
 Reference value :  1.25657e-06
 Reference value :  1.25974e-06
 Reference value :  1.26644e-06
 Reference value :  1.31958e-06
 Reference value :  1.50000e-06
 Reference value :  1.50003e-06
 Reference value :  1.50011e-06
 Reference value :  1.50022e-06
 Reference value :  1.50086e-06
 Reference value :  1.50175e-06
 Reference value :  1.50268e-06
 Reference value :  1.50322e-06
 Reference value :  1.50442e-06
 Reference value :  1.50605e-06
 Reference value :  1.50671e-06
 Reference value :  1.50832e-06
 Reference value :  1.51031e-06
 Reference value :  1.52620e-06
 Reference value :  1.64136e-06
 Reference value :  1.75013e-06
 Reference value :  1.75021e-06
 Reference value :  1.75032e-06
 Reference value :  1.75083e-06
 Reference value :  1.75170e-06
 Reference value :  1.75270e-06
 Reference value :  1.75350e-06
 Reference value :  1.75401e-06
 Reference value :  1.75527e-06
 Reference value :  1.75680e-06
 Reference value :  1.75871e-06
 Reference value :  1.76166e-06
 Reference value :  1.77226e-06
 Reference value :  1.81663e-06
 Reference value :  2.00000e-06
 Reference value :  2.00007e-06
 Reference value :  2.00016e-06
 Reference value :  2.00034e-06
 Reference value :  2.00086e-06
 Reference value :  2.00182e-06
 Reference value :  2.00278e-06
 Reference value :  2.00334e-06
 Reference value :  2.00457e-06
 Reference value :  2.00582e-06
 Reference value :  2.00733e-06
 Reference value :  2.00943e-06
 Reference value :  2.01047e-06
 Reference value :  2.01155e-06
 Reference value :  2.01351e-06
 Reference value :  2.01529e-06
 Reference value :  2.01725e-06
 Reference value :  2.01840e-06
 Reference value :  2.01959e-06
 Reference value :  2.02345e-06
 Reference value :  2.04737e-06
 Reference value :  2.06366e-06
 Reference value :  2.09347e-06
 Reference value :  2.10290e-06
 Reference value :  2.11996e-06
 Reference value :  2.15370e-06
 Reference value :  2.22800e-06
 Reference value :  2.25013e-06
 Reference value :  2.25021e-06
 Reference value :  2.25032e-06
 Reference value :  2.25084e-06
 Reference value :  2.25171e-06
 Reference value :  2.25352e-06
 Reference value :  2.25463e-06
 Reference value :  2.25600e-06
 Reference value :  2.26020e-06
 Reference value :  2.29470e-06
 Reference value :  2.50000e-06
 Reference value :  2.50007e-06
 Reference value :  2.50012e-06
 Reference value :  2.50034e-06
 Reference value :  2.50086e-06
 Reference value :  2.50231e-06
 Reference value :  2.50333e-06
 Reference value :  2.50455e-06
 Reference value :  2.50638e-06
 Reference value :  2.50715e-06
 Reference value :  2.50887e-06
 Reference value :  2.51094e-06
 Reference value :  2.51805e-06
 Reference value :  2.55308e-06
 Reference value :  2.75011e-06
 Reference value :  2.75020e-06
 Reference value :  2.75032e-06
 Reference value :  2.75084e-06
 Reference value :  2.75171e-06
 Reference value :  2.75273e-06
 Reference value :  2.75402e-06
 Reference value :  2.75598e-06
 Reference value :  2.76020e-06
 Reference value :  2.77712e-06
 Reference value :  2.88486e-06
 Reference value :  3.00003e-06
 Reference value :  3.00010e-06
 Reference value :  3.00012e-06
 Reference value :  3.00022e-06
 Reference value :  3.00052e-06
 Reference value :  3.00131e-06
 Reference value :  3.00231e-06
 Reference value :  3.00332e-06
 Reference value :  3.00449e-06
 Reference value :  3.00586e-06
 Reference value :  3.00748e-06
 Reference value :  3.01007e-06
 Reference value :  3.01150e-06
 Reference value :  3.01276e-06
 Reference value :  3.01376e-06
 Reference value :  3.01584e-06
 Reference value :  3.01685e-06
 Reference value :  3.01908e-06
 Reference value :  3.02242e-06
 Reference value :  3.02977e-06
 Reference value :  3.04065e-06
 Reference value :  3.04679e-06
 Reference value :  3.05144e-06
 Reference value :  3.06028e-06
 Reference value :  3.07048e-06
 Reference value :  3.09000e-06
 Reference value :  3.16282e-06
 Reference value :  3.25011e-06
 Reference value :  3.25020e-06
 Reference value :  3.25026e-06
 Reference value :  3.25060e-06
 Reference value :  3.25127e-06
 Reference value :  3.25171e-06
 Reference value :  3.25273e-06
 Reference value :  3.25396e-06
 Reference value :  3.25514e-06
 Reference value :  3.25584e-06
 Reference value :  3.25814e-06
 Reference value :  3.26272e-06
 Reference value :  3.27446e-06
 Reference value :  3.38400e-06
 Reference value :  3.50003e-06
 Reference value :  3.50011e-06
 Reference value :  3.50022e-06
 Reference value :  3.50052e-06
 Reference value :  3.50131e-06
 Reference value :  3.50175e-06
 Reference value :  3.50268e-06
 Reference value :  3.50322e-06
 Reference value :  3.50442e-06
 Reference value :  3.50522e-06
 Reference value :  3.50671e-06
 Reference value :  3.50832e-06
 Reference value :  3.51030e-06
 Reference value :  3.51794e-06
 Reference value :  3.54239e-06
 Reference value :  3.75010e-06
 Reference value :  3.75017e-06
 Reference value :  3.75021e-06
 Reference value :  3.75026e-06
 Reference value :  3.75044e-06
 Reference value :  3.75083e-06
 Reference value :  3.75170e-06
 Reference value :  3.75270e-06
 Reference value :  3.75350e-06
 Reference value :  3.75401e-06
 Reference value :  3.75527e-06
 Reference value :  3.75598e-06
 Reference value :  3.75680e-06
 Reference value :  3.75871e-06
 Reference value :  3.76167e-06
 Reference value :  3.77227e-06
 Reference value :  3.81667e-06
 Reference value :  4.00000e-06
 Reference value :  4.00003e-06
 Reference value :  4.00011e-06
 Reference value :  4.00016e-06
 Reference value :  4.00034e-06
 Reference value :  4.00086e-06
 Reference value :  4.00182e-06
 Reference value :  4.00278e-06
 Reference value :  4.00334e-06
 Reference value :  4.00457e-06
 Reference value :  4.00582e-06
 Reference value :  4.00733e-06
 Reference value :  4.00943e-06
 Reference value :  4.01155e-06
 Reference value :  4.01354e-06
 Reference value :  4.01534e-06
 Reference value :  4.01732e-06
 Reference value :  4.01849e-06
 Reference value :  4.02154e-06
 Reference value :  4.02633e-06
 Reference value :  4.03226e-06
 Reference value :  4.03433e-06
 Reference value :  4.03629e-06
 Reference value :  4.03843e-06
 Reference value :  4.04414e-06
 Reference value :  4.05935e-06
 Reference value :  4.10541e-06
 Reference value :  4.23350e-06
 Reference value :  4.25011e-06
 Reference value :  4.25020e-06
 Reference value :  4.25026e-06
 Reference value :  4.25054e-06
 Reference value :  4.25147e-06
 Reference value :  4.25245e-06
 Reference value :  4.25384e-06
 Reference value :  4.25441e-06
 Reference value :  4.25648e-06
 Reference value :  4.26140e-06
 Reference value :  4.31223e-06
 Reference value :  4.50000e-06
 Reference value :  4.50007e-06
 Reference value :  4.50012e-06
 Reference value :  4.50059e-06
 Reference value :  4.50196e-06
 Reference value :  4.50297e-06
 Reference value :  4.50410e-06
 Reference value :  4.50641e-06
 Reference value :  4.50828e-06
 Reference value :  4.51020e-06
 Reference value :  4.51246e-06
 Reference value :  4.52706e-06
 Reference value :  4.63588e-06
 Reference value :  4.75013e-06
 Reference value :  4.75021e-06
 Reference value :  4.75032e-06
 Reference value :  4.75074e-06
 Reference value :  4.75194e-06
 Reference value :  4.75311e-06
 Reference value :  4.75440e-06
 Reference value :  4.75566e-06
 Reference value :  4.75725e-06
 Reference value :  4.77068e-06
 Reference value :  4.94526e-06
 Reference value :  5.00007e-06
 Reference value :  5.00012e-06
 Reference value :  5.00035e-06
 Reference value :  5.00093e-06
 Reference value :  5.00196e-06
 Reference value :  5.00297e-06
 Reference value :  5.00349e-06
 Reference value :  5.00466e-06
 Reference value :  5.00659e-06
 Reference value :  5.01046e-06
 Reference value :  5.01186e-06
 Reference value :  5.01441e-06
 Reference value :  5.01633e-06
 Reference value :  5.02004e-06
 Reference value :  5.03017e-06
 Reference value :  5.04156e-06
 Reference value :  5.05245e-06
 Reference value :  5.06305e-06
 Reference value :  5.08194e-06
 Reference value :  5.12102e-06
 Reference value :  5.16776e-06
 Reference value :  5.19641e-06
 Reference value :  5.22571e-06
 Reference value :  5.25010e-06
 Reference value :  5.25017e-06
 Reference value :  5.25022e-06
 Reference value :  5.25039e-06
 Reference value :  5.25097e-06
 Reference value :  5.25193e-06
 Reference value :  5.25309e-06
 Reference value :  5.25435e-06
 Reference value :  5.25639e-06
 Reference value :  5.26111e-06
 Reference value :  5.28265e-06
 Reference value :  5.43090e-06
 Reference value :  5.50003e-06
 Reference value :  5.50011e-06
 Reference value :  5.50022e-06
 Reference value :  5.50093e-06
 Reference value :  5.50196e-06
 Reference value :  5.50297e-06
 Reference value :  5.50350e-06
 Reference value :  5.50489e-06
 Reference value :  5.50641e-06
 Reference value :  5.50826e-06
 Reference value :  5.51123e-06
 Reference value :  5.51898e-06
 Reference value :  5.57368e-06
 Reference value :  5.75011e-06
 Reference value :  5.75017e-06
 Reference value :  5.75021e-06
 Reference value :  5.75025e-06
 Reference value :  5.75039e-06
 Reference value :  5.75074e-06
 Reference value :  5.75147e-06
 Reference value :  5.75244e-06
 Reference value :  5.75382e-06
 Reference value :  5.75440e-06
 Reference value :  5.75566e-06
 Reference value :  5.75643e-06
 Reference value :  5.76115e-06
 Reference value :  5.78294e-06
 Reference value :  5.94285e-06
 Reference value :  6.00001e-06
 Reference value :  6.00007e-06
 Reference value :  6.00016e-06
 Reference value :  6.00059e-06
 Reference value :  6.00145e-06
 Reference value :  6.00245e-06
 Reference value :  6.00349e-06
 Reference value :  6.00466e-06
 Reference value :  6.00588e-06
 Reference value :  6.00872e-06
 Reference value :  6.01186e-06
 Reference value :  6.01441e-06
 Reference value :  6.01634e-06
 Reference value :  6.01878e-06
 Reference value :  6.02211e-06
 Reference value :  6.02827e-06
 Reference value :  6.03823e-06
 Reference value :  6.04799e-06
 Reference value :  6.05813e-06
 Reference value :  6.07652e-06
 Reference value :  6.16400e-06
 Reference value :  6.25011e-06
 Reference value :  6.25017e-06
 Reference value :  6.25022e-06
 Reference value :  6.25032e-06
 Reference value :  6.25071e-06
 Reference value :  6.25143e-06
 Reference value :  6.25241e-06
 Reference value :  6.25434e-06
 Reference value :  6.25641e-06
 Reference value :  6.26121e-06
 Reference value :  6.28321e-06
 Reference value :  6.43172e-06
 Reference value :  6.50003e-06
 Reference value :  6.50010e-06
 Reference value :  6.50016e-06
 Reference value :  6.50035e-06
 Reference value :  6.50093e-06
 Reference value :  6.50196e-06
 Reference value :  6.50293e-06
 Reference value :  6.50405e-06
 Reference value :  6.50560e-06
 Reference value :  6.50743e-06
 Reference value :  6.50928e-06
 Reference value :  6.51138e-06
 Reference value :  6.52550e-06
 Reference value :  6.60158e-06
 Reference value :  6.75011e-06
 Reference value :  6.75017e-06
 Reference value :  6.75022e-06
 Reference value :  6.75032e-06
 Reference value :  6.75074e-06
 Reference value :  6.75194e-06
 Reference value :  6.75382e-06
 Reference value :  6.75503e-06
 Reference value :  6.75644e-06
 Reference value :  6.75808e-06
 Reference value :  6.76026e-06
 Reference value :  6.76722e-06
 Reference value :  6.79483e-06
 Reference value :  7.00000e-06
 Reference value :  7.00007e-06
 Reference value :  7.00012e-06
 Reference value :  7.00035e-06
 Reference value :  7.00145e-06
 Reference value :  7.00245e-06
 Reference value :  7.00350e-06
 Reference value :  7.00459e-06
 Reference value :  7.00646e-06
 Reference value :  7.00970e-06
 Reference value :  7.01175e-06
 Reference value :  7.01378e-06
 Reference value :  7.01554e-06
 Reference value :  7.01870e-06
 Reference value :  7.02821e-06
 Reference value :  7.05055e-06
 Reference value :  7.06897e-06
 Reference value :  7.10633e-06
 Reference value :  7.13935e-06
 Reference value :  7.25011e-06
 Reference value :  7.25020e-06
 Reference value :  7.25025e-06
 Reference value :  7.25054e-06
 Reference value :  7.25097e-06
 Reference value :  7.25192e-06
 Reference value :  7.25308e-06
 Reference value :  7.25434e-06
 Reference value :  7.25632e-06
 Reference value :  7.26094e-06
 Reference value :  7.28123e-06
 Reference value :  7.42005e-06
 Reference value :  7.50003e-06
 Reference value :  7.50011e-06
 Reference value :  7.50022e-06
 Reference value :  7.50093e-06
 Reference value :  7.50196e-06
 Reference value :  7.50297e-06
 Reference value :  7.50410e-06
 Reference value :  7.50641e-06
 Reference value :  7.50828e-06
 Reference value :  7.51126e-06
 Reference value :  7.52690e-06
 Reference value :  7.75010e-06
 Reference value :  7.75017e-06
 Reference value :  7.75022e-06
 Reference value :  7.75039e-06
 Reference value :  7.75099e-06
 Reference value :  7.75244e-06
 Reference value :  7.75440e-06
 Reference value :  7.75643e-06
 Reference value :  7.75889e-06
 Reference value :  7.77068e-06
 Reference value :  7.85026e-06
 Reference value :  8.00003e-06
 Reference value :  8.00011e-06
 Reference value :  8.00022e-06
 Reference value :  8.00093e-06
 Reference value :  8.00245e-06
 Reference value :  8.00349e-06
 Reference value :  8.00466e-06
 Reference value :  8.00588e-06
 Reference value :  8.00739e-06
 Reference value :  8.00899e-06
 Reference value :  8.01102e-06
 Reference value :  8.04245e-06
 Reference value :  8.25011e-06
 Reference value :  8.25017e-06
 Reference value :  8.25022e-06
 Reference value :  8.25044e-06
 Reference value :  8.25118e-06
 Reference value :  8.25205e-06
 Reference value :  8.25329e-06
 Reference value :  8.25503e-06
 Reference value :  8.25693e-06
 Reference value :  8.26020e-06
 Reference value :  8.27753e-06
 Reference value :  8.41167e-06
 Reference value :  8.50003e-06
 Reference value :  8.50011e-06
 Reference value :  8.50022e-06
 Reference value :  8.50094e-06
 Reference value :  8.50195e-06
 Reference value :  8.50297e-06
 Reference value :  8.50357e-06
 Reference value :  8.50489e-06
 Reference value :  8.50631e-06
 Reference value :  8.50849e-06
 Reference value :  8.51987e-06
 Reference value :  8.52614e-06
 Reference value :  8.53072e-06
 Reference value :  8.53816e-06
 Reference value :  8.54383e-06
 Reference value :  8.54997e-06
 Reference value :  8.57522e-06
 Reference value :  8.69214e-06
 Reference value :  8.75017e-06
 Reference value :  8.75022e-06
 Reference value :  8.75032e-06
 Reference value :  8.75060e-06
 Reference value :  8.75127e-06
 Reference value :  8.75216e-06
 Reference value :  8.75350e-06
 Reference value :  8.75460e-06
 Reference value :  8.75595e-06
 Reference value :  8.76008e-06
 Reference value :  8.77596e-06
 Reference value :  8.88769e-06
 Reference value :  9.00003e-06
 Reference value :  9.00011e-06
 Reference value :  9.00022e-06
 Reference value :  9.00086e-06
 Reference value :  9.00231e-06
 Reference value :  9.00332e-06
 Reference value :  9.00454e-06
 Reference value :  9.00757e-06
 Reference value :  9.00985e-06
 Reference value :  9.01108e-06
 Reference value :  9.01366e-06
 Reference value :  9.01893e-06
 Reference value :  9.04692e-06
 Reference value :  9.17364e-06
 Reference value :  9.25013e-06
 Reference value :  9.25021e-06
 Reference value :  9.25032e-06
 Reference value :  9.25083e-06
 Reference value :  9.25170e-06
 Reference value :  9.25270e-06
 Reference value :  9.25349e-06
 Reference value :  9.25401e-06
 Reference value :  9.25526e-06
 Reference value :  9.25689e-06
 Reference value :  9.26275e-06
 Reference value :  9.29267e-06
 Reference value :  9.50000e-06
 Reference value :  9.50003e-06
 Reference value :  9.50010e-06
 Reference value :  9.50016e-06
 Reference value :  9.50052e-06
 Reference value :  9.50131e-06
 Reference value :  9.50231e-06
 Reference value :  9.50332e-06
 Reference value :  9.50448e-06
 Reference value :  9.50585e-06
 Reference value :  9.50748e-06
 Reference value :  9.51005e-06
 Reference value :  9.51274e-06
 Reference value :  9.51374e-06
 Reference value :  9.51683e-06
 Reference value :  9.52061e-06
 Reference value :  9.53035e-06
 Reference value :  9.57878e-06
 Reference value :  9.60849e-06
 Reference value :  9.63544e-06
 Reference value :  9.66019e-06
 Reference value :  9.67019e-06
 Reference value :  9.68716e-06
 Reference value :  9.71963e-06
 Reference value :  9.75011e-06
 Reference value :  9.75020e-06
 Reference value :  9.75026e-06
 Reference value :  9.75060e-06
 Reference value :  9.75127e-06
 Reference value :  9.75216e-06
 Reference value :  9.75345e-06
 Reference value :  9.75394e-06
 Reference value :  9.75581e-06
 Reference value :  9.75973e-06
 Reference value :  9.77398e-06
 Reference value :  1.00000e-05
 Reference value :  1.00001e-05
 Reference value :  1.00002e-05
 Reference value :  1.00005e-05
 Reference value :  1.00017e-05
 Reference value :  1.00032e-05
 Reference value :  1.00044e-05
 Reference value :  1.00061e-05
 Reference value :  1.00067e-05
 Reference value :  1.00083e-05
 Reference value :  1.00103e-05
 Reference value :  1.00259e-05
 Reference value :  1.02501e-05
 Reference value :  1.02502e-05
 Reference value :  1.02502e-05
 Reference value :  1.02504e-05
 Reference value :  1.02513e-05
 Reference value :  1.02527e-05
 Reference value :  1.02540e-05
 Reference value :  1.02560e-05
 Reference value :  1.02577e-05
 Reference value :  1.02617e-05
 Reference value :  1.02802e-05
 Reference value :  1.03537e-05
 Reference value :  1.05000e-05
 Reference value :  1.05001e-05
 Reference value :  1.05002e-05
 Reference value :  1.05005e-05
 Reference value :  1.05013e-05
 Reference value :  1.05028e-05
 Reference value :  1.05039e-05
 Reference value :  1.05058e-05
 Reference value :  1.05083e-05
 Reference value :  1.05105e-05
 Reference value :  1.05115e-05
 Reference value :  1.05135e-05
 Reference value :  1.05153e-05
 Reference value :  1.05172e-05
 Reference value :  1.05208e-05
 Reference value :  1.05298e-05
 Reference value :  1.05609e-05
 Reference value :  1.05853e-05
 Reference value :  1.05940e-05
 Reference value :  1.05999e-05
 Reference value :  1.06085e-05
 Reference value :  1.06401e-05
 Reference value :  1.06935e-05
 Reference value :  1.07501e-05
 Reference value :  1.07502e-05
 Reference value :  1.07503e-05
 Reference value :  1.07506e-05
 Reference value :  1.07517e-05
 Reference value :  1.07535e-05
 Reference value :  1.07546e-05
 Reference value :  1.07560e-05
 Reference value :  1.07584e-05
 Reference value :  1.07677e-05
 Reference value :  1.08903e-05
 Reference value :  1.10000e-05
 Reference value :  1.10001e-05
 Reference value :  1.10001e-05
 Reference value :  1.10003e-05
 Reference value :  1.10009e-05
 Reference value :  1.10018e-05
 Reference value :  1.10028e-05
 Reference value :  1.10039e-05
 Reference value :  1.10055e-05
 Reference value :  1.10071e-05
 Reference value :  1.10089e-05
 Reference value :  1.10109e-05
 Reference value :  1.10240e-05
 Reference value :  1.10519e-05
 Reference value :  1.12501e-05
 Reference value :  1.12502e-05
 Reference value :  1.12502e-05
 Reference value :  1.12504e-05
 Reference value :  1.12513e-05
 Reference value :  1.12522e-05
 Reference value :  1.12535e-05
 Reference value :  1.12546e-05
 Reference value :  1.12560e-05
 Reference value :  1.12602e-05
 Reference value :  1.12769e-05
 Reference value :  1.13840e-05
 Reference value :  1.15000e-05
 Reference value :  1.15001e-05
 Reference value :  1.15002e-05
 Reference value :  1.15009e-05
 Reference value :  1.15018e-05
 Reference value :  1.15028e-05
 Reference value :  1.15033e-05
 Reference value :  1.15045e-05
 Reference value :  1.15059e-05
 Reference value :  1.15085e-05
 Reference value :  1.15101e-05
 Reference value :  1.15128e-05
 Reference value :  1.15138e-05
 Reference value :  1.15158e-05
 Reference value :  1.15179e-05
 Reference value :  1.15224e-05
 Reference value :  1.15298e-05
 Reference value :  1.15468e-05
 Reference value :  1.15514e-05
 Reference value :  1.15603e-05
 Reference value :  1.15705e-05
 Reference value :  1.15900e-05
 Reference value :  1.16631e-05
 Reference value :  1.17501e-05
 Reference value :  1.17502e-05
 Reference value :  1.17502e-05
 Reference value :  1.17504e-05
 Reference value :  1.17513e-05
 Reference value :  1.17522e-05
 Reference value :  1.17535e-05
 Reference value :  1.17545e-05
 Reference value :  1.17558e-05
 Reference value :  1.17598e-05
 Reference value :  1.17901e-05
 Reference value :  1.20000e-05
 Reference value :  1.20001e-05
 Reference value :  1.20001e-05
 Reference value :  1.20003e-05
 Reference value :  1.20013e-05
 Reference value :  1.20022e-05
 Reference value :  1.20032e-05
 Reference value :  1.20038e-05
 Reference value :  1.20052e-05
 Reference value :  1.20067e-05
 Reference value :  1.20083e-05
 Reference value :  1.20115e-05
 Reference value :  1.20259e-05
 Reference value :  1.21390e-05
 Reference value :  1.22501e-05
 Reference value :  1.22502e-05
 Reference value :  1.22503e-05
 Reference value :  1.22508e-05
 Reference value :  1.22517e-05
 Reference value :  1.22535e-05
 Reference value :  1.22540e-05
 Reference value :  1.22553e-05
 Reference value :  1.22568e-05
 Reference value :  1.22587e-05
 Reference value :  1.22635e-05
 Reference value :  1.22802e-05
 Reference value :  1.23537e-05
 Reference value :  1.25000e-05
 Reference value :  1.25001e-05
 Reference value :  1.25002e-05
 Reference value :  1.25009e-05
 Reference value :  1.25023e-05
 Reference value :  1.25033e-05
 Reference value :  1.25046e-05
 Reference value :  1.25058e-05
 Reference value :  1.25073e-05
 Reference value :  1.25105e-05
 Reference value :  1.25127e-05
 Reference value :  1.25143e-05
 Reference value :  1.25164e-05
 Reference value :  1.25186e-05
 Reference value :  1.25214e-05
 Reference value :  1.25291e-05
 Reference value :  1.25321e-05
 Reference value :  1.25362e-05
 Reference value :  1.25404e-05
 Reference value :  1.25473e-05
 Reference value :  1.25810e-05
 Reference value :  1.27179e-05
 Reference value :  1.27501e-05
 Reference value :  1.27502e-05
 Reference value :  1.27504e-05
 Reference value :  1.27510e-05
 Reference value :  1.27524e-05
 Reference value :  1.27538e-05
 Reference value :  1.27544e-05
 Reference value :  1.27556e-05
 Reference value :  1.27574e-05
 Reference value :  1.27651e-05
 Reference value :  1.28126e-05
 Reference value :  1.30000e-05
 Reference value :  1.30001e-05
 Reference value :  1.30001e-05
 Reference value :  1.30002e-05
 Reference value :  1.30009e-05
 Reference value :  1.30020e-05
 Reference value :  1.30030e-05
 Reference value :  1.30041e-05
 Reference value :  1.30057e-05
 Reference value :  1.30073e-05
 Reference value :  1.30093e-05
 Reference value :  1.30112e-05
 Reference value :  1.30269e-05
 Reference value :  1.31329e-05
 Reference value :  1.32501e-05
 Reference value :  1.32502e-05
 Reference value :  1.32503e-05
 Reference value :  1.32507e-05
 Reference value :  1.32519e-05
 Reference value :  1.32531e-05
 Reference value :  1.32544e-05
 Reference value :  1.32557e-05
 Reference value :  1.32572e-05
 Reference value :  1.32707e-05
 Reference value :  1.33502e-05
 Reference value :  1.35000e-05
 Reference value :  1.35001e-05
 Reference value :  1.35002e-05
 Reference value :  1.35006e-05
 Reference value :  1.35015e-05
 Reference value :  1.35024e-05
 Reference value :  1.35035e-05
 Reference value :  1.35047e-05
 Reference value :  1.35059e-05
 Reference value :  1.35087e-05
 Reference value :  1.35119e-05
 Reference value :  1.35143e-05
 Reference value :  1.35164e-05
 Reference value :  1.35187e-05
 Reference value :  1.35239e-05
 Reference value :  1.35379e-05
 Reference value :  1.35481e-05
 Reference value :  1.35578e-05
 Reference value :  1.35687e-05
 Reference value :  1.35900e-05
 Reference value :  1.36662e-05
 Reference value :  1.36938e-05
 Reference value :  1.37122e-05
 Reference value :  1.37501e-05
 Reference value :  1.37502e-05
 Reference value :  1.37503e-05
 Reference value :  1.37505e-05
 Reference value :  1.37510e-05
 Reference value :  1.37519e-05
 Reference value :  1.37531e-05
 Reference value :  1.37543e-05
 Reference value :  1.37556e-05
 Reference value :  1.37572e-05
 Reference value :  1.37700e-05
 Reference value :  1.39215e-05
 Reference value :  1.40000e-05
 Reference value :  1.40001e-05
 Reference value :  1.40002e-05
 Reference value :  1.40006e-05
 Reference value :  1.40015e-05
 Reference value :  1.40024e-05
 Reference value :  1.40035e-05
 Reference value :  1.40049e-05
 Reference value :  1.40064e-05
 Reference value :  1.40083e-05
 Reference value :  1.40102e-05
 Reference value :  1.40125e-05
 Reference value :  1.40427e-05
 Reference value :  1.42501e-05
 Reference value :  1.42502e-05
 Reference value :  1.42503e-05
 Reference value :  1.42505e-05
 Reference value :  1.42515e-05
 Reference value :  1.42524e-05
 Reference value :  1.42538e-05
 Reference value :  1.42550e-05
 Reference value :  1.42564e-05
 Reference value :  1.42645e-05
 Reference value :  1.43502e-05
 Reference value :  1.45000e-05
 Reference value :  1.45001e-05
 Reference value :  1.45002e-05
 Reference value :  1.45009e-05
 Reference value :  1.45020e-05
 Reference value :  1.45030e-05
 Reference value :  1.45041e-05
 Reference value :  1.45047e-05
 Reference value :  1.45053e-05
 Reference value :  1.45066e-05
 Reference value :  1.45087e-05
 Reference value :  1.45105e-05
 Reference value :  1.45119e-05
 Reference value :  1.45144e-05
 Reference value :  1.45154e-05
 Reference value :  1.45163e-05
 Reference value :  1.45200e-05
 Reference value :  1.45248e-05
 Reference value :  1.45382e-05
 Reference value :  1.45480e-05
 Reference value :  1.45641e-05
 Reference value :  1.45854e-05
 Reference value :  1.46636e-05
 Reference value :  1.47501e-05
 Reference value :  1.47502e-05
 Reference value :  1.47502e-05
 Reference value :  1.47504e-05
 Reference value :  1.47510e-05
 Reference value :  1.47519e-05
 Reference value :  1.47531e-05
 Reference value :  1.47543e-05
 Reference value :  1.47556e-05
 Reference value :  1.47574e-05
 Reference value :  1.47713e-05
 Reference value :  1.49327e-05
 Reference value :  1.50000e-05
 Reference value :  1.50001e-05
 Reference value :  1.50003e-05
 Reference value :  1.50015e-05
 Reference value :  1.50024e-05
 Reference value :  1.50035e-05
 Reference value :  1.50047e-05
 Reference value :  1.50065e-05
 Reference value :  1.50083e-05
 Reference value :  1.50102e-05
 Reference value :  1.50125e-05
 Reference value :  1.50258e-05
 Reference value :  1.52037e-05
 Reference value :  1.52501e-05
 Reference value :  1.52502e-05
 Reference value :  1.52503e-05
 Reference value :  1.52507e-05
 Reference value :  1.52515e-05
 Reference value :  1.52524e-05
 Reference value :  1.52544e-05
 Reference value :  1.52564e-05
 Reference value :  1.52590e-05
 Reference value :  1.52619e-05
 Reference value :  1.52729e-05
 Reference value :  1.53164e-05
 Reference value :  1.55013e-05
 Reference value :  1.55039e-05
 Reference value :  1.55052e-05
 Reference value :  1.55065e-05
 Reference value :  1.55078e-05
 Reference value :  1.55102e-05
 Reference value :  1.55113e-05
 Reference value :  1.55135e-05
 Reference value :  1.55143e-05
 Reference value :  1.55164e-05
 Reference value :  1.55185e-05
 Reference value :  1.55231e-05
 Reference value :  1.55360e-05
 Reference value :  1.55571e-05
 Reference value :  1.55716e-05
 Reference value :  1.56090e-05
 Reference value :  1.56845e-05
 Reference value :  1.57501e-05
 Reference value :  1.57502e-05
 Reference value :  1.57502e-05
 Reference value :  1.57503e-05
 Reference value :  1.57505e-05
 Reference value :  1.57509e-05
 Reference value :  1.57515e-05
 Reference value :  1.57524e-05
 Reference value :  1.57537e-05
 Reference value :  1.57543e-05
 Reference value :  1.57555e-05
 Reference value :  1.57570e-05
 Reference value :  1.57639e-05
 Reference value :  1.57958e-05
 Reference value :  1.58782e-05
 Reference value :  1.60000e-05
 Reference value :  1.60000e-05
 Reference value :  1.60001e-05
 Reference value :  1.60002e-05
 Reference value :  1.60003e-05
 Reference value :  1.60009e-05
 Reference value :  1.60020e-05
 Reference value :  1.60024e-05
 Reference value :  1.60035e-05
 Reference value :  1.60049e-05
 Reference value :  1.60064e-05
 Reference value :  1.60083e-05
 Reference value :  1.60102e-05
 Reference value :  1.60113e-05
 Reference value :  1.60149e-05
 Reference value :  1.60269e-05
 Reference value :  1.61329e-05
 Reference value :  1.62501e-05
 Reference value :  1.62502e-05
 Reference value :  1.62502e-05
 Reference value :  1.62503e-05
 Reference value :  1.62504e-05
 Reference value :  1.62507e-05
 Reference value :  1.62515e-05
 Reference value :  1.62519e-05
 Reference value :  1.62531e-05
 Reference value :  1.62544e-05
 Reference value :  1.62557e-05
 Reference value :  1.62564e-05
 Reference value :  1.62612e-05
 Reference value :  1.62829e-05
 Reference value :  1.65000e-05
 Reference value :  1.65000e-05
 Reference value :  1.65001e-05
 Reference value :  1.65002e-05
 Reference value :  1.65003e-05
 Reference value :  1.65009e-05
 Reference value :  1.65020e-05
 Reference value :  1.65024e-05
 Reference value :  1.65035e-05
 Reference value :  1.65047e-05
 Reference value :  1.65059e-05
 Reference value :  1.65074e-05
 Reference value :  1.65081e-05
 Reference value :  1.65100e-05
 Reference value :  1.65174e-05
 Reference value :  1.65759e-05
 Reference value :  1.67501e-05
 Reference value :  1.67502e-05
 Reference value :  1.67503e-05
 Reference value :  1.67504e-05
 Reference value :  1.67508e-05
 Reference value :  1.67516e-05
 Reference value :  1.67526e-05
 Reference value :  1.67533e-05
 Reference value :  1.67540e-05
 Reference value :  1.67560e-05
 Reference value :  1.67585e-05
 Reference value :  1.67680e-05
 Reference value :  1.68350e-05
 Reference value :  1.70015e-05
 Reference value :  1.70045e-05
 Reference value :  1.70060e-05
 Reference value :  1.70111e-05
 Reference value :  1.70205e-05
 Reference value :  1.70253e-05
 Reference value :  1.70287e-05
 Reference value :  1.70314e-05
 Reference value :  1.70338e-05
 Reference value :  1.70357e-05
 Reference value :  1.70386e-05
 Reference value :  1.70419e-05
 Reference value :  1.70469e-05
 Reference value :  1.70545e-05
 Reference value :  1.70789e-05
 Reference value :  1.71152e-05
 Reference value :  1.72501e-05
 Reference value :  1.72501e-05
 Reference value :  1.72502e-05
 Reference value :  1.72502e-05
 Reference value :  1.72504e-05
 Reference value :  1.72508e-05
 Reference value :  1.72517e-05
 Reference value :  1.72527e-05
 Reference value :  1.72535e-05
 Reference value :  1.72539e-05
 Reference value :  1.72551e-05
 Reference value :  1.72559e-05
 Reference value :  1.72582e-05
 Reference value :  1.72628e-05
 Reference value :  1.72905e-05
 Reference value :  1.75000e-05
 Reference value :  1.75000e-05
 Reference value :  1.75001e-05
 Reference value :  1.75001e-05
 Reference value :  1.75002e-05
 Reference value :  1.75005e-05
 Reference value :  1.75013e-05
 Reference value :  1.75023e-05
 Reference value :  1.75033e-05
 Reference value :  1.75045e-05
 Reference value :  1.75064e-05
 Reference value :  1.75076e-05
 Reference value :  1.75099e-05
 Reference value :  1.75124e-05
 Reference value :  1.75137e-05
 Reference value :  1.75191e-05
 Reference value :  1.75478e-05
 Reference value :  1.77501e-05
 Reference value :  1.77502e-05
 Reference value :  1.77502e-05
 Reference value :  1.77504e-05
 Reference value :  1.77513e-05
 Reference value :  1.77521e-05
 Reference value :  1.77535e-05
 Reference value :  1.77540e-05
 Reference value :  1.77560e-05
 Reference value :  1.77602e-05
 Reference value :  1.77773e-05
 Reference value :  1.78851e-05
 Reference value :  1.80021e-05
 Reference value :  1.80084e-05
 Reference value :  1.80121e-05
 Reference value :  1.80134e-05
 Reference value :  1.80159e-05
 Reference value :  1.80187e-05
 Reference value :  1.80253e-05
 Reference value :  1.80812e-05
 Reference value :  1.81115e-05
 Reference value :  1.81436e-05
 Reference value :  1.81658e-05
 Reference value :  1.81804e-05
 Reference value :  1.82010e-05
 Reference value :  1.82375e-05
 Reference value :  1.82501e-05
 Reference value :  1.82502e-05
 Reference value :  1.82503e-05
 Reference value :  1.82508e-05
 Reference value :  1.82517e-05
 Reference value :  1.82526e-05
 Reference value :  1.82536e-05
 Reference value :  1.82546e-05
 Reference value :  1.82559e-05
 Reference value :  1.82600e-05
 Reference value :  1.82753e-05
 Reference value :  1.83915e-05
 Reference value :  1.85000e-05
 Reference value :  1.85001e-05
 Reference value :  1.85001e-05
 Reference value :  1.85003e-05
 Reference value :  1.85013e-05
 Reference value :  1.85022e-05
 Reference value :  1.85032e-05
 Reference value :  1.85044e-05
 Reference value :  1.85052e-05
 Reference value :  1.85067e-05
 Reference value :  1.85083e-05
 Reference value :  1.85103e-05
 Reference value :  1.85176e-05
 Reference value :  1.85700e-05
 Reference value :  1.87501e-05
 Reference value :  1.87502e-05
 Reference value :  1.87503e-05
 Reference value :  1.87508e-05
 Reference value :  1.87517e-05
 Reference value :  1.87527e-05
 Reference value :  1.87540e-05
 Reference value :  1.87553e-05
 Reference value :  1.87560e-05
 Reference value :  1.87576e-05
 Reference value :  1.87598e-05
 Reference value :  1.87634e-05
 Reference value :  1.87801e-05
 Reference value :  1.88163e-05
 Reference value :  1.89137e-05
 Reference value :  1.90000e-05
 Reference value :  1.90001e-05
 Reference value :  1.90001e-05
 Reference value :  1.90002e-05
 Reference value :  1.90009e-05
 Reference value :  1.90023e-05
 Reference value :  1.90028e-05
 Reference value :  1.90033e-05
 Reference value :  1.90046e-05
 Reference value :  1.90058e-05
 Reference value :  1.90073e-05
 Reference value :  1.90094e-05
 Reference value :  1.90115e-05
 Reference value :  1.90135e-05
 Reference value :  1.90153e-05
 Reference value :  1.90173e-05
 Reference value :  1.90196e-05
 Reference value :  1.90274e-05
 Reference value :  1.90612e-05
 Reference value :  1.90871e-05
 Reference value :  1.90954e-05
 Reference value :  1.91122e-05
 Reference value :  1.91369e-05
 Reference value :  1.91989e-05
 Reference value :  1.92501e-05
 Reference value :  1.92502e-05
 Reference value :  1.92504e-05
 Reference value :  1.92513e-05
 Reference value :  1.92527e-05
 Reference value :  1.92540e-05
 Reference value :  1.92560e-05
 Reference value :  1.92602e-05
 Reference value :  1.92946e-05
 Reference value :  1.95020e-05
 Reference value :  1.95060e-05
 Reference value :  1.95081e-05
 Reference value :  1.95142e-05
 Reference value :  1.95265e-05
 Reference value :  1.95827e-05
 Reference value :  1.97501e-05
 Reference value :  1.97502e-05
 Reference value :  1.97502e-05
 Reference value :  1.97504e-05
 Reference value :  1.97513e-05
 Reference value :  1.97527e-05
 Reference value :  1.97536e-05
 Reference value :  1.97547e-05
 Reference value :  1.97568e-05
 Reference value :  1.97630e-05
 Reference value :  1.97933e-05
 Reference value :  2.00000e-05
 Reference value :  2.00001e-05
 Reference value :  2.00001e-05
 Reference value :  2.00003e-05
 Reference value :  2.00013e-05
 Reference value :  2.00028e-05
 Reference value :  2.00033e-05
 Reference value :  2.00045e-05
 Reference value :  2.00059e-05
 Reference value :  2.00085e-05
 Reference value :  2.00101e-05
 Reference value :  2.00128e-05
 Reference value :  2.00147e-05
 Reference value :  2.00168e-05
 Reference value :  2.00191e-05
 Reference value :  2.00224e-05
 Reference value :  2.00298e-05
 Reference value :  2.00406e-05
 Reference value :  2.00468e-05
 Reference value :  2.00514e-05
 Reference value :  2.00603e-05
 Reference value :  2.00705e-05
 Reference value :  2.00900e-05
 Reference value :  2.01629e-05
 Reference value :  2.02501e-05
 Reference value :  2.02502e-05
 Reference value :  2.02502e-05
 Reference value :  2.02503e-05
 Reference value :  2.02506e-05
 Reference value :  2.02508e-05
 Reference value :  2.02517e-05
 Reference value :  2.02527e-05
 Reference value :  2.02540e-05
 Reference value :  2.02558e-05
 Reference value :  2.02581e-05
 Reference value :  2.02627e-05
 Reference value :  2.02901e-05
 Reference value :  2.05000e-05
 Reference value :  2.05021e-05
 Reference value :  2.05063e-05
 Reference value :  2.05084e-05
 Reference value :  2.05129e-05
 Reference value :  2.05183e-05
 Reference value :  2.05352e-05
 Reference value :  2.05900e-05
 Reference value :  2.07501e-05
 Reference value :  2.07502e-05
 Reference value :  2.07502e-05
 Reference value :  2.07504e-05
 Reference value :  2.07508e-05
 Reference value :  2.07517e-05
 Reference value :  2.07527e-05
 Reference value :  2.07536e-05
 Reference value :  2.07547e-05
 Reference value :  2.07560e-05
 Reference value :  2.07576e-05
 Reference value :  2.07597e-05
 Reference value :  2.07665e-05
 Reference value :  2.07961e-05
 Reference value :  2.09317e-05
 Reference value :  2.10000e-05
 Reference value :  2.10001e-05
 Reference value :  2.10002e-05
 Reference value :  2.10005e-05
 Reference value :  2.10013e-05
 Reference value :  2.10028e-05
 Reference value :  2.10039e-05
 Reference value :  2.10052e-05
 Reference value :  2.10058e-05
 Reference value :  2.10073e-05
 Reference value :  2.10105e-05
 Reference value :  2.10116e-05
 Reference value :  2.10135e-05
 Reference value :  2.10153e-05
 Reference value :  2.10173e-05
 Reference value :  2.10197e-05
 Reference value :  2.10264e-05
 Reference value :  2.10323e-05
 Reference value :  2.10363e-05
 Reference value :  2.10444e-05
 Reference value :  2.10600e-05
 Reference value :  2.11342e-05
 Reference value :  2.12501e-05
 Reference value :  2.12502e-05
 Reference value :  2.12503e-05
 Reference value :  2.12505e-05
 Reference value :  2.12515e-05
 Reference value :  2.12524e-05
 Reference value :  2.12538e-05
 Reference value :  2.12550e-05
 Reference value :  2.12565e-05
 Reference value :  2.12650e-05
 Reference value :  2.13665e-05
 Reference value :  2.15000e-05
 Reference value :  2.15001e-05
 Reference value :  2.15003e-05
 Reference value :  2.15015e-05
 Reference value :  2.15024e-05
 Reference value :  2.15035e-05
 Reference value :  2.15049e-05
 Reference value :  2.15064e-05
 Reference value :  2.15083e-05
 Reference value :  2.15113e-05
 Reference value :  2.15269e-05
 Reference value :  2.16328e-05
 Reference value :  2.17501e-05
 Reference value :  2.17502e-05
 Reference value :  2.17503e-05
 Reference value :  2.17507e-05
 Reference value :  2.17519e-05
 Reference value :  2.17538e-05
 Reference value :  2.17550e-05
 Reference value :  2.17564e-05
 Reference value :  2.17589e-05
 Reference value :  2.17707e-05
 Reference value :  2.18502e-05
 Reference value :  2.20010e-05
 Reference value :  2.20041e-05
 Reference value :  2.20060e-05
 Reference value :  2.20078e-05
 Reference value :  2.20103e-05
 Reference value :  2.20133e-05
 Reference value :  2.20144e-05
 Reference value :  2.20165e-05
 Reference value :  2.20187e-05
 Reference value :  2.20216e-05
 Reference value :  2.20268e-05
 Reference value :  2.20366e-05
 Reference value :  2.20503e-05
 Reference value :  2.20615e-05
 Reference value :  2.20681e-05
 Reference value :  2.20886e-05
 Reference value :  2.21208e-05
 Reference value :  2.21469e-05
 Reference value :  2.22023e-05
 Reference value :  2.22249e-05
 Reference value :  2.22409e-05
 Reference value :  2.22501e-05
 Reference value :  2.22502e-05
 Reference value :  2.22502e-05
 Reference value :  2.22503e-05
 Reference value :  2.22504e-05
 Reference value :  2.22509e-05
 Reference value :  2.22515e-05
 Reference value :  2.22529e-05
 Reference value :  2.22543e-05
 Reference value :  2.22555e-05
 Reference value :  2.22562e-05
 Reference value :  2.22586e-05
 Reference value :  2.22690e-05
 Reference value :  2.22953e-05
 Reference value :  2.24706e-05
 Reference value :  2.25000e-05
 Reference value :  2.25001e-05
 Reference value :  2.25002e-05
 Reference value :  2.25009e-05
 Reference value :  2.25020e-05
 Reference value :  2.25030e-05
 Reference value :  2.25035e-05
 Reference value :  2.25049e-05
 Reference value :  2.25064e-05
 Reference value :  2.25083e-05
 Reference value :  2.25113e-05
 Reference value :  2.25190e-05
 Reference value :  2.25720e-05
 Reference value :  2.27501e-05
 Reference value :  2.27502e-05
 Reference value :  2.27502e-05
 Reference value :  2.27504e-05
 Reference value :  2.27510e-05
 Reference value :  2.27519e-05
 Reference value :  2.27531e-05
 Reference value :  2.27544e-05
 Reference value :  2.27557e-05
 Reference value :  2.27564e-05
 Reference value :  2.27589e-05
 Reference value :  2.27646e-05
 Reference value :  2.27830e-05
 Reference value :  2.28512e-05
 Reference value :  2.30000e-05
 Reference value :  2.30011e-05
 Reference value :  2.30043e-05
 Reference value :  2.30063e-05
 Reference value :  2.30080e-05
 Reference value :  2.30106e-05
 Reference value :  2.30134e-05
 Reference value :  2.30155e-05
 Reference value :  2.30177e-05
 Reference value :  2.30199e-05
 Reference value :  2.30233e-05
 Reference value :  2.30354e-05
 Reference value :  2.30405e-05
 Reference value :  2.30479e-05
 Reference value :  2.30555e-05
 Reference value :  2.30719e-05
 Reference value :  2.31296e-05
 Reference value :  2.32501e-05
 Reference value :  2.32502e-05
 Reference value :  2.32503e-05
 Reference value :  2.32504e-05
 Reference value :  2.32507e-05
 Reference value :  2.32509e-05
 Reference value :  2.32515e-05
 Reference value :  2.32524e-05
 Reference value :  2.32537e-05
 Reference value :  2.32542e-05
 Reference value :  2.32553e-05
 Reference value :  2.32561e-05
 Reference value :  2.32584e-05
 Reference value :  2.32633e-05
 Reference value :  2.32770e-05
 Reference value :  2.33206e-05
 Reference value :  2.34692e-05
 Reference value :  2.35000e-05
 Reference value :  2.35001e-05
 Reference value :  2.35001e-05
 Reference value :  2.35006e-05
 Reference value :  2.35020e-05
 Reference value :  2.35029e-05
 Reference value :  2.35041e-05
 Reference value :  2.35056e-05
 Reference value :  2.35074e-05
 Reference value :  2.35092e-05
 Reference value :  2.35113e-05
 Reference value :  2.35258e-05
 Reference value :  2.37042e-05
 Reference value :  2.37501e-05
 Reference value :  2.37502e-05
 Reference value :  2.37503e-05
 Reference value :  2.37507e-05
 Reference value :  2.37519e-05
 Reference value :  2.37531e-05
 Reference value :  2.37544e-05
 Reference value :  2.37557e-05
 Reference value :  2.37564e-05
 Reference value :  2.37581e-05
 Reference value :  2.37619e-05
 Reference value :  2.37728e-05
 Reference value :  2.38161e-05
 Reference value :  2.40000e-05
 Reference value :  2.40000e-05
 Reference value :  2.40001e-05
 Reference value :  2.40001e-05
 Reference value :  2.40003e-05
 Reference value :  2.40009e-05
 Reference value :  2.40020e-05
 Reference value :  2.40024e-05
 Reference value :  2.40035e-05
 Reference value :  2.40046e-05
 Reference value :  2.40058e-05
 Reference value :  2.40082e-05
 Reference value :  2.40107e-05
 Reference value :  2.40129e-05
 Reference value :  2.40138e-05
 Reference value :  2.40155e-05
 Reference value :  2.40175e-05
 Reference value :  2.40200e-05
 Reference value :  2.40283e-05
 Reference value :  2.40415e-05
 Reference value :  2.40508e-05
 Reference value :  2.40699e-05
 Reference value :  2.40888e-05
 Reference value :  2.41260e-05
 Reference value :  2.42501e-05
 Reference value :  2.42502e-05
 Reference value :  2.42503e-05
 Reference value :  2.42505e-05
 Reference value :  2.42514e-05
 Reference value :  2.42524e-05
 Reference value :  2.42538e-05
 Reference value :  2.42543e-05
 Reference value :  2.42555e-05
 Reference value :  2.42571e-05
 Reference value :  2.42699e-05
 Reference value :  2.44195e-05
 Reference value :  2.45000e-05
 Reference value :  2.45001e-05
 Reference value :  2.45002e-05
 Reference value :  2.45009e-05
 Reference value :  2.45024e-05
 Reference value :  2.45035e-05
 Reference value :  2.45057e-05
 Reference value :  2.45073e-05
 Reference value :  2.45092e-05
 Reference value :  2.45112e-05
 Reference value :  2.45190e-05
 Reference value :  2.45733e-05
 Reference value :  2.47501e-05
 Reference value :  2.47502e-05
 Reference value :  2.47503e-05
 Reference value :  2.47505e-05
 Reference value :  2.47515e-05
 Reference value :  2.47524e-05
 Reference value :  2.47538e-05
 Reference value :  2.47544e-05
 Reference value :  2.47564e-05
 Reference value :  2.47646e-05
 Reference value :  2.48054e-05
 Reference value :  2.50000e-05
 Reference value :  2.50000e-05
 Reference value :  2.50001e-05
 Reference value :  2.50002e-05
 Reference value :  2.50009e-05
 Reference value :  2.50020e-05
 Reference value :  2.50030e-05
 Reference value :  2.50041e-05
 Reference value :  2.50053e-05
 Reference value :  2.50074e-05
 Reference value :  2.50090e-05
 Reference value :  2.50110e-05
 Reference value :  2.50257e-05
 Reference value :  2.51428e-05
 Reference value :  2.52501e-05
 Reference value :  2.52502e-05
 Reference value :  2.52503e-05
 Reference value :  2.52506e-05
 Reference value :  2.52512e-05
 Reference value :  2.52520e-05
 Reference value :  2.52533e-05
 Reference value :  2.52560e-05
 Reference value :  2.52585e-05
 Reference value :  2.52775e-05
 Reference value :  2.54117e-05
 Reference value :  2.55015e-05
 Reference value :  2.55045e-05
 Reference value :  2.55060e-05
 Reference value :  2.55093e-05
 Reference value :  2.55133e-05
 Reference value :  2.55205e-05
 Reference value :  2.55253e-05
 Reference value :  2.55287e-05
 Reference value :  2.55314e-05
 Reference value :  2.55338e-05
 Reference value :  2.55357e-05
 Reference value :  2.55386e-05
 Reference value :  2.55439e-05
 Reference value :  2.55545e-05
 Reference value :  2.55966e-05
 Reference value :  2.56959e-05
 Reference value :  2.57501e-05
 Reference value :  2.57502e-05
 Reference value :  2.57503e-05
 Reference value :  2.57508e-05
 Reference value :  2.57517e-05
 Reference value :  2.57527e-05
 Reference value :  2.57539e-05
 Reference value :  2.57559e-05
 Reference value :  2.57598e-05
 Reference value :  2.57903e-05
 Reference value :  2.60000e-05
 Reference value :  2.60001e-05
 Reference value :  2.60001e-05
 Reference value :  2.60003e-05
 Reference value :  2.60013e-05
 Reference value :  2.60028e-05
 Reference value :  2.60039e-05
 Reference value :  2.60064e-05
 Reference value :  2.60075e-05
 Reference value :  2.60099e-05
 Reference value :  2.60124e-05
 Reference value :  2.60137e-05
 Reference value :  2.60191e-05
 Reference value :  2.60347e-05
 Reference value :  2.61119e-05
 Reference value :  2.62501e-05
 Reference value :  2.62502e-05
 Reference value :  2.62502e-05
 Reference value :  2.62503e-05
 Reference value :  2.62508e-05
 Reference value :  2.62517e-05
 Reference value :  2.62535e-05
 Reference value :  2.62540e-05
 Reference value :  2.62553e-05
 Reference value :  2.62569e-05
 Reference value :  2.62627e-05
 Reference value :  2.62922e-05
 Reference value :  2.65000e-05
 Reference value :  2.65021e-05
 Reference value :  2.65063e-05
 Reference value :  2.65084e-05
 Reference value :  2.65122e-05
 Reference value :  2.65136e-05
 Reference value :  2.65148e-05
 Reference value :  2.65174e-05
 Reference value :  2.65205e-05
 Reference value :  2.65299e-05
 Reference value :  2.65502e-05
 Reference value :  2.66020e-05
 Reference value :  2.66330e-05
 Reference value :  2.66727e-05
 Reference value :  2.66915e-05
 Reference value :  2.67257e-05
 Reference value :  2.67501e-05
 Reference value :  2.67502e-05
 Reference value :  2.67503e-05
 Reference value :  2.67508e-05
 Reference value :  2.67517e-05
 Reference value :  2.67526e-05
 Reference value :  2.67536e-05
 Reference value :  2.67546e-05
 Reference value :  2.67559e-05
 Reference value :  2.67600e-05
 Reference value :  2.67755e-05
 Reference value :  2.68928e-05
 Reference value :  2.70000e-05
 Reference value :  2.70001e-05
 Reference value :  2.70002e-05
 Reference value :  2.70005e-05
 Reference value :  2.70013e-05
 Reference value :  2.70022e-05
 Reference value :  2.70032e-05
 Reference value :  2.70044e-05
 Reference value :  2.70060e-05
 Reference value :  2.70067e-05
 Reference value :  2.70083e-05
 Reference value :  2.70115e-05
 Reference value :  2.70409e-05
 Reference value :  2.72501e-05
 Reference value :  2.72502e-05
 Reference value :  2.72502e-05
 Reference value :  2.72504e-05
 Reference value :  2.72513e-05
 Reference value :  2.72521e-05
 Reference value :  2.72535e-05
 Reference value :  2.72546e-05
 Reference value :  2.72560e-05
 Reference value :  2.72576e-05
 Reference value :  2.72616e-05
 Reference value :  2.72722e-05
 Reference value :  2.73163e-05
 Reference value :  2.75000e-05
 Reference value :  2.75001e-05
 Reference value :  2.75001e-05
 Reference value :  2.75003e-05
 Reference value :  2.75013e-05
 Reference value :  2.75023e-05
 Reference value :  2.75033e-05
 Reference value :  2.75046e-05
 Reference value :  2.75058e-05
 Reference value :  2.75083e-05
 Reference value :  2.75105e-05
 Reference value :  2.75115e-05
 Reference value :  2.75135e-05
 Reference value :  2.75153e-05
 Reference value :  2.75173e-05
 Reference value :  2.75196e-05
 Reference value :  2.75274e-05
 Reference value :  2.75612e-05
 Reference value :  2.75872e-05
 Reference value :  2.75955e-05
 Reference value :  2.76123e-05
 Reference value :  2.76369e-05
 Reference value :  2.76981e-05
 Reference value :  2.77501e-05
 Reference value :  2.77502e-05
 Reference value :  2.77503e-05
 Reference value :  2.77506e-05
 Reference value :  2.77513e-05
 Reference value :  2.77522e-05
 Reference value :  2.77535e-05
 Reference value :  2.77540e-05
 Reference value :  2.77553e-05
 Reference value :  2.77560e-05
 Reference value :  2.77583e-05
 Reference value :  2.77677e-05
 Reference value :  2.78264e-05
 Reference value :  2.80000e-05
 Reference value :  2.80020e-05
 Reference value :  2.80060e-05
 Reference value :  2.80081e-05
 Reference value :  2.80101e-05
 Reference value :  2.80142e-05
 Reference value :  2.80189e-05
 Reference value :  2.80265e-05
 Reference value :  2.80584e-05
 Reference value :  2.81858e-05
 Reference value :  2.82501e-05
 Reference value :  2.82502e-05
 Reference value :  2.82502e-05
 Reference value :  2.82504e-05
 Reference value :  2.82508e-05
 Reference value :  2.82513e-05
 Reference value :  2.82521e-05
 Reference value :  2.82527e-05
 Reference value :  2.82536e-05
 Reference value :  2.82547e-05
 Reference value :  2.82560e-05
 Reference value :  2.82583e-05
 Reference value :  2.82673e-05
 Reference value :  2.83280e-05
 Reference value :  2.85000e-05
 Reference value :  2.85001e-05
 Reference value :  2.85001e-05
 Reference value :  2.85002e-05
 Reference value :  2.85003e-05
 Reference value :  2.85009e-05
 Reference value :  2.85018e-05
 Reference value :  2.85028e-05
 Reference value :  2.85033e-05
 Reference value :  2.85045e-05
 Reference value :  2.85059e-05
 Reference value :  2.85075e-05
 Reference value :  2.85101e-05
 Reference value :  2.85115e-05
 Reference value :  2.85128e-05
 Reference value :  2.85138e-05
 Reference value :  2.85158e-05
 Reference value :  2.85179e-05
 Reference value :  2.85207e-05
 Reference value :  2.85298e-05
 Reference value :  2.85468e-05
 Reference value :  2.85514e-05
 Reference value :  2.85603e-05
 Reference value :  2.85705e-05
 Reference value :  2.85900e-05
 Reference value :  2.86629e-05
 Reference value :  2.87501e-05
 Reference value :  2.87502e-05
 Reference value :  2.87502e-05
 Reference value :  2.87504e-05
 Reference value :  2.87513e-05
 Reference value :  2.87522e-05
 Reference value :  2.87535e-05
 Reference value :  2.87540e-05
 Reference value :  2.87551e-05
 Reference value :  2.87566e-05
 Reference value :  2.87627e-05
 Reference value :  2.87901e-05
 Reference value :  2.90000e-05
 Reference value :  2.90021e-05
 Reference value :  2.90084e-05
 Reference value :  2.90129e-05
 Reference value :  2.90221e-05
 Reference value :  2.90465e-05
 Reference value :  2.91924e-05
 Reference value :  2.92502e-05
 Reference value :  2.92502e-05
 Reference value :  2.92504e-05
 Reference value :  2.92513e-05
 Reference value :  2.92521e-05
 Reference value :  2.92527e-05
 Reference value :  2.92536e-05
 Reference value :  2.92547e-05
 Reference value :  2.92560e-05
 Reference value :  2.92586e-05
 Reference value :  2.92633e-05
 Reference value :  2.92805e-05
 Reference value :  2.93616e-05
 Reference value :  2.95000e-05
 Reference value :  2.95001e-05
 Reference value :  2.95002e-05
 Reference value :  2.95005e-05
 Reference value :  2.95013e-05
 Reference value :  2.95023e-05
 Reference value :  2.95033e-05
 Reference value :  2.95046e-05
 Reference value :  2.95058e-05
 Reference value :  2.95073e-05
 Reference value :  2.95094e-05
 Reference value :  2.95105e-05
 Reference value :  2.95116e-05
 Reference value :  2.95135e-05
 Reference value :  2.95153e-05
 Reference value :  2.95173e-05
 Reference value :  2.95197e-05
 Reference value :  2.95237e-05
 Reference value :  2.95323e-05
 Reference value :  2.95363e-05
 Reference value :  2.95385e-05
 Reference value :  2.95444e-05
 Reference value :  2.95600e-05
 Reference value :  2.96075e-05
 Reference value :  2.97416e-05
 Reference value :  2.97501e-05
 Reference value :  2.97502e-05
 Reference value :  2.97502e-05
 Reference value :  2.97503e-05
 Reference value :  2.97505e-05
 Reference value :  2.97510e-05
 Reference value :  2.97519e-05
 Reference value :  2.97531e-05
 Reference value :  2.97544e-05
 Reference value :  2.97556e-05
 Reference value :  2.97574e-05
 Reference value :  2.97650e-05
 Reference value :  2.98124e-05
 Reference value :  3.00000e-05
 Reference value :  3.00001e-05
 Reference value :  3.00001e-05
 Reference value :  3.00002e-05
 Reference value :  3.00009e-05
 Reference value :  3.00020e-05
 Reference value :  3.00030e-05
 Reference value :  3.00035e-05
 Reference value :  3.00049e-05
 Reference value :  3.00064e-05
 Reference value :  3.00073e-05
 Reference value :  3.00083e-05
 Reference value :  3.00102e-05
 Reference value :  3.00149e-05
 Reference value :  3.00727e-05
 Reference value :  3.02501e-05
 Reference value :  3.02502e-05
 Reference value :  3.02502e-05
 Reference value :  3.02503e-05
 Reference value :  3.02504e-05
 Reference value :  3.02507e-05
 Reference value :  3.02515e-05
 Reference value :  3.02519e-05
 Reference value :  3.02531e-05
 Reference value :  3.02544e-05
 Reference value :  3.02564e-05
 Reference value :  3.02645e-05
 Reference value :  3.02829e-05
 Reference value :  3.03502e-05
 Reference value :  3.05000e-05
 Reference value :  3.05010e-05
 Reference value :  3.05041e-05
 Reference value :  3.05060e-05
 Reference value :  3.05078e-05
 Reference value :  3.05103e-05
 Reference value :  3.05133e-05
 Reference value :  3.05154e-05
 Reference value :  3.05176e-05
 Reference value :  3.05199e-05
 Reference value :  3.05235e-05
 Reference value :  3.05316e-05
 Reference value :  3.05424e-05
 Reference value :  3.05557e-05
 Reference value :  3.05681e-05
 Reference value :  3.06024e-05
 Reference value :  3.06735e-05
 Reference value :  3.07023e-05
 Reference value :  3.07249e-05
 Reference value :  3.07501e-05
 Reference value :  3.07502e-05
 Reference value :  3.07502e-05
 Reference value :  3.07503e-05
 Reference value :  3.07505e-05
 Reference value :  3.07512e-05
 Reference value :  3.07519e-05
 Reference value :  3.07529e-05
 Reference value :  3.07543e-05
 Reference value :  3.07555e-05
 Reference value :  3.07570e-05
 Reference value :  3.07638e-05
 Reference value :  3.07791e-05
 Reference value :  3.08780e-05
 Reference value :  3.10000e-05
 Reference value :  3.10001e-05
 Reference value :  3.10002e-05
 Reference value :  3.10006e-05
 Reference value :  3.10015e-05
 Reference value :  3.10024e-05
 Reference value :  3.10035e-05
 Reference value :  3.10049e-05
 Reference value :  3.10064e-05
 Reference value :  3.10083e-05
 Reference value :  3.10102e-05
 Reference value :  3.10125e-05
 Reference value :  3.10190e-05
 Reference value :  3.10720e-05
 Reference value :  3.12501e-05
 Reference value :  3.12502e-05
 Reference value :  3.12502e-05
 Reference value :  3.12503e-05
 Reference value :  3.12505e-05
 Reference value :  3.12510e-05
 Reference value :  3.12519e-05
 Reference value :  3.12531e-05
 Reference value :  3.12544e-05
 Reference value :  3.12557e-05
 Reference value :  3.12564e-05
 Reference value :  3.12573e-05
 Reference value :  3.12612e-05
 Reference value :  3.12830e-05
 Reference value :  3.14421e-05
 Reference value :  3.15000e-05
 Reference value :  3.15001e-05
 Reference value :  3.15001e-05
 Reference value :  3.15002e-05
 Reference value :  3.15003e-05
 Reference value :  3.15009e-05
 Reference value :  3.15024e-05
 Reference value :  3.15035e-05
 Reference value :  3.15041e-05
 Reference value :  3.15047e-05
 Reference value :  3.15059e-05
 Reference value :  3.15074e-05
 Reference value :  3.15105e-05
 Reference value :  3.15119e-05
 Reference value :  3.15144e-05
 Reference value :  3.15163e-05
 Reference value :  3.15188e-05
 Reference value :  3.15248e-05
 Reference value :  3.15382e-05
 Reference value :  3.15473e-05
 Reference value :  3.15630e-05
 Reference value :  3.15834e-05
 Reference value :  3.16507e-05
 Reference value :  3.17501e-05
 Reference value :  3.17502e-05
 Reference value :  3.17503e-05
 Reference value :  3.17504e-05
 Reference value :  3.17510e-05
 Reference value :  3.17519e-05
 Reference value :  3.17531e-05
 Reference value :  3.17543e-05
 Reference value :  3.17564e-05
 Reference value :  3.17648e-05
 Reference value :  3.18476e-05
 Reference value :  3.20000e-05
 Reference value :  3.20001e-05
 Reference value :  3.20003e-05
 Reference value :  3.20015e-05
 Reference value :  3.20024e-05
 Reference value :  3.20035e-05
 Reference value :  3.20047e-05
 Reference value :  3.20056e-05
 Reference value :  3.20065e-05
 Reference value :  3.20083e-05
 Reference value :  3.20092e-05
 Reference value :  3.20113e-05
 Reference value :  3.20187e-05
 Reference value :  3.20629e-05
 Reference value :  3.22501e-05
 Reference value :  3.22502e-05
 Reference value :  3.22503e-05
 Reference value :  3.22504e-05
 Reference value :  3.22510e-05
 Reference value :  3.22519e-05
 Reference value :  3.22531e-05
 Reference value :  3.22544e-05
 Reference value :  3.22557e-05
 Reference value :  3.22573e-05
 Reference value :  3.22603e-05
 Reference value :  3.22672e-05
 Reference value :  3.23164e-05
 Reference value :  3.25000e-05
 Reference value :  3.25001e-05
 Reference value :  3.25001e-05
 Reference value :  3.25003e-05
 Reference value :  3.25015e-05
 Reference value :  3.25024e-05
 Reference value :  3.25035e-05
 Reference value :  3.25046e-05
 Reference value :  3.25065e-05
 Reference value :  3.25097e-05
 Reference value :  3.25118e-05
 Reference value :  3.25138e-05
 Reference value :  3.25155e-05
 Reference value :  3.25187e-05
 Reference value :  3.25244e-05
 Reference value :  3.25415e-05
 Reference value :  3.25508e-05
 Reference value :  3.25700e-05
 Reference value :  3.25888e-05
 Reference value :  3.26446e-05
 Reference value :  3.27501e-05
 Reference value :  3.27502e-05
 Reference value :  3.27503e-05
 Reference value :  3.27507e-05
 Reference value :  3.27514e-05
 Reference value :  3.27524e-05
 Reference value :  3.27538e-05
 Reference value :  3.27543e-05
 Reference value :  3.27563e-05
 Reference value :  3.27642e-05
 Reference value :  3.28404e-05
 Reference value :  3.30000e-05
 Reference value :  3.30001e-05
 Reference value :  3.30001e-05
 Reference value :  3.30003e-05
 Reference value :  3.30009e-05
 Reference value :  3.30020e-05
 Reference value :  3.30030e-05
 Reference value :  3.30041e-05
 Reference value :  3.30064e-05
 Reference value :  3.30083e-05
 Reference value :  3.30112e-05
 Reference value :  3.30190e-05
 Reference value :  3.30733e-05
 Reference value :  3.32501e-05
 Reference value :  3.32502e-05
 Reference value :  3.32503e-05
 Reference value :  3.32505e-05
 Reference value :  3.32515e-05
 Reference value :  3.32531e-05
 Reference value :  3.32544e-05
 Reference value :  3.32564e-05
 Reference value :  3.32612e-05
 Reference value :  3.33054e-05
 Reference value :  3.35000e-05
 Reference value :  3.35010e-05
 Reference value :  3.35041e-05
 Reference value :  3.35060e-05
 Reference value :  3.35078e-05
 Reference value :  3.35096e-05
 Reference value :  3.35118e-05
 Reference value :  3.35394e-05
 Reference value :  3.37501e-05
 Reference value :  3.37502e-05
 Reference value :  3.37502e-05
 Reference value :  3.37503e-05
 Reference value :  3.37504e-05
 Reference value :  3.37508e-05
 Reference value :  3.37514e-05
 Reference value :  3.37523e-05
 Reference value :  3.37538e-05
 Reference value :  3.37554e-05
 Reference value :  3.37575e-05
 Reference value :  3.37613e-05
 Reference value :  3.37895e-05
 Reference value :  3.40000e-05
No. of Data Rows : 4770
ngspice-44 done
