
Note: Compatibility modes selected: hs a


Circuit: ** sch_path: /home/ece/cace/sar-adc-using-sky130-pdk/runs/run_2025-09-10_21-56-51/parameters/sndr/run_0/sndr_enob_fom.sch

option SCALE: Scale is set to 1e-06 for instance and model parameters
option SCALE: Scale is set to 1e-06 for instance and model parameters
option SCALE: Scale is set to 1e-06 for instance and model parameters
option SCALE: Scale is set to 1e-06 for instance and model parameters
Doing analysis at TEMP = 27.000000 and TNOM = 27.000000

Using KLU as Direct Linear Solver
Operating point simulation skipped by 'uic',
  now using transient initial conditions.
 Reference value :  1.00000e-12
 Reference value :  1.02772e-12
 Reference value :  1.08316e-12
 Reference value :  1.19404e-12
 Reference value :  1.33846e-12
 Reference value :  1.62729e-12
 Reference value :  2.20497e-12
 Reference value :  3.05053e-12
 Reference value :  3.95569e-12
 Reference value :  5.17254e-12
 Reference value :  6.90336e-12
 Reference value :  1.02199e-11
 Reference value :  1.39174e-11
 Reference value :  2.08132e-11
 Reference value :  2.76011e-11
 Reference value :  3.67061e-11
 Reference value :  4.77704e-11
 Reference value :  6.49073e-11
 Reference value :  8.51516e-11
 Reference value :  1.00000e-10
 Reference value :  1.01239e-10
 Reference value :  1.03717e-10
 Reference value :  1.08672e-10
 Reference value :  1.18583e-10
 Reference value :  1.38404e-10
 Reference value :  1.78047e-10
 Reference value :  2.57332e-10
 Reference value :  4.09139e-10
 Reference value :  5.73435e-10
 Reference value :  8.40966e-10
 Reference value :  1.20191e-09
 Reference value :  1.62808e-09
 Reference value :  2.28562e-09
 Reference value :  2.96037e-09
 Reference value :  4.03141e-09
 Reference value :  4.86226e-09
 Reference value :  5.73963e-09
 Reference value :  6.99798e-09
 Reference value :  8.16773e-09
 Reference value :  9.50930e-09
 Reference value :  1.04408e-08
 Reference value :  1.13296e-08
 Reference value :  1.22007e-08
 Reference value :  1.31799e-08
 Reference value :  1.51383e-08
 Reference value :  1.86401e-08
 Reference value :  2.23372e-08
 Reference value :  2.63153e-08
 Reference value :  2.98171e-08
 Reference value :  3.37025e-08
 Reference value :  3.70569e-08
 Reference value :  4.05480e-08
 Reference value :  4.54975e-08
 Reference value :  5.24898e-08
 Reference value :  6.34614e-08
 Reference value :  8.38735e-08
 Reference value :  1.15521e-07
 Reference value :  1.78817e-07
 Reference value :  2.50100e-07
 Reference value :  2.50110e-07
 Reference value :  2.50130e-07
 Reference value :  2.50170e-07
 Reference value :  2.50200e-07
 Reference value :  2.50201e-07
 Reference value :  2.50202e-07
 Reference value :  2.50204e-07
 Reference value :  2.50208e-07
 Reference value :  2.50216e-07
 Reference value :  2.50233e-07
 Reference value :  2.50267e-07
 Reference value :  2.50334e-07
 Reference value :  2.50416e-07
 Reference value :  2.50578e-07
 Reference value :  2.50740e-07
 Reference value :  2.51064e-07
 Reference value :  2.51433e-07
 Reference value :  2.52000e-07
 Reference value :  2.52605e-07
 Reference value :  2.53305e-07
 Reference value :  2.54251e-07
 Reference value :  2.55267e-07
 Reference value :  2.56209e-07
 Reference value :  2.57137e-07
 Reference value :  2.58161e-07
 Reference value :  2.59137e-07
 Reference value :  2.60806e-07
 Reference value :  2.63151e-07
 Reference value :  2.65566e-07
 Reference value :  2.69724e-07
 Reference value :  2.75757e-07
 Reference value :  2.87822e-07
 Reference value :  3.11953e-07
 Reference value :  3.56896e-07
 Reference value :  4.46783e-07
 Reference value :  5.00000e-07
 Reference value :  5.00010e-07
 Reference value :  5.00030e-07
 Reference value :  5.00070e-07
 Reference value :  5.00100e-07
 Reference value :  5.00104e-07
 Reference value :  5.00113e-07
 Reference value :  5.00130e-07
 Reference value :  5.00164e-07
 Reference value :  5.00231e-07
 Reference value :  5.00367e-07
 Reference value :  5.00555e-07
 Reference value :  5.00931e-07
 Reference value :  5.01441e-07
 Reference value :  5.01988e-07
 Reference value :  5.02572e-07
 Reference value :  5.03299e-07
 Reference value :  5.03988e-07
 Reference value :  5.04868e-07
 Reference value :  5.05732e-07
 Reference value :  5.06712e-07
 Reference value :  5.07962e-07
 Reference value :  5.09473e-07
 Reference value :  5.11506e-07
 Reference value :  5.13937e-07
 Reference value :  5.15835e-07
 Reference value :  5.17886e-07
 Reference value :  5.20499e-07
 Reference value :  5.23122e-07
 Reference value :  5.25907e-07
 Reference value :  5.31216e-07
 Reference value :  5.38400e-07
 Reference value :  5.48666e-07
 Reference value :  5.69196e-07
 Reference value :  5.99926e-07
 Reference value :  6.61385e-07
 Reference value :  7.50100e-07
 Reference value :  7.50110e-07
 Reference value :  7.50130e-07
 Reference value :  7.50170e-07
 Reference value :  7.50200e-07
 Reference value :  7.50201e-07
 Reference value :  7.50202e-07
 Reference value :  7.50205e-07
 Reference value :  7.50211e-07
 Reference value :  7.50223e-07
 Reference value :  7.50247e-07
 Reference value :  7.50295e-07
 Reference value :  7.50390e-07
 Reference value :  7.50580e-07
 Reference value :  7.50956e-07
 Reference value :  7.51478e-07
 Reference value :  7.52136e-07
 Reference value :  7.52787e-07
 Reference value :  7.53536e-07
 Reference value :  7.54575e-07
 Reference value :  7.55319e-07
 Reference value :  7.56167e-07
 Reference value :  7.56918e-07
 Reference value :  7.57752e-07
 Reference value :  7.58784e-07
 Reference value :  7.59912e-07
 Reference value :  7.62169e-07
 Reference value :  7.64635e-07
 Reference value :  7.68698e-07
 Reference value :  7.74006e-07
 Reference value :  7.84623e-07
 Reference value :  8.05855e-07
 Reference value :  8.48321e-07
 Reference value :  9.33253e-07
 Reference value :  1.00000e-06
 Reference value :  1.00001e-06
 Reference value :  1.00003e-06
 Reference value :  1.00007e-06
 Reference value :  1.00010e-06
 Reference value :  1.00010e-06
 Reference value :  1.00011e-06
 Reference value :  1.00013e-06
 Reference value :  1.00016e-06
 Reference value :  1.00023e-06
 Reference value :  1.00037e-06
 Reference value :  1.00055e-06
 Reference value :  1.00093e-06
 Reference value :  1.00144e-06
 Reference value :  1.00198e-06
 Reference value :  1.00256e-06
 Reference value :  1.00321e-06
 Reference value :  1.00388e-06
 Reference value :  1.00467e-06
 Reference value :  1.00549e-06
 Reference value :  1.00635e-06
 Reference value :  1.00731e-06
 Reference value :  1.00811e-06
 Reference value :  1.00905e-06
 Reference value :  1.00998e-06
 Reference value :  1.01119e-06
 Reference value :  1.01294e-06
 Reference value :  1.01554e-06
 Reference value :  1.01799e-06
 Reference value :  1.02017e-06
 Reference value :  1.02200e-06
 Reference value :  1.02397e-06
 Reference value :  1.02579e-06
 Reference value :  1.02762e-06
 Reference value :  1.02996e-06
 Reference value :  1.03217e-06
 Reference value :  1.03521e-06
 Reference value :  1.03941e-06
 Reference value :  1.04281e-06
 Reference value :  1.04633e-06
 Reference value :  1.04965e-06
 Reference value :  1.05295e-06
 Reference value :  1.05636e-06
 Reference value :  1.05950e-06
 Reference value :  1.06282e-06
 Reference value :  1.06620e-06
 Reference value :  1.06986e-06
 Reference value :  1.07716e-06
 Reference value :  1.08479e-06
 Reference value :  1.09182e-06
 Reference value :  1.10031e-06
 Reference value :  1.10906e-06
 Reference value :  1.12571e-06
 Reference value :  1.15105e-06
 Reference value :  1.20173e-06
 Reference value :  1.25010e-06
 Reference value :  1.25011e-06
 Reference value :  1.25013e-06
 Reference value :  1.25017e-06
 Reference value :  1.25020e-06
 Reference value :  1.25020e-06
 Reference value :  1.25020e-06
 Reference value :  1.25021e-06
 Reference value :  1.25021e-06
 Reference value :  1.25022e-06
 Reference value :  1.25025e-06
 Reference value :  1.25030e-06
 Reference value :  1.25039e-06
 Reference value :  1.25059e-06
 Reference value :  1.25093e-06
 Reference value :  1.25147e-06
 Reference value :  1.25211e-06
 Reference value :  1.25276e-06
 Reference value :  1.25350e-06
 Reference value :  1.25453e-06
 Reference value :  1.25525e-06
 Reference value :  1.25606e-06
 Reference value :  1.25699e-06
 Reference value :  1.25794e-06
 Reference value :  1.25916e-06
 Reference value :  1.26129e-06
 Reference value :  1.26336e-06
 Reference value :  1.26676e-06
 Reference value :  1.27091e-06
 Reference value :  1.27922e-06
 Reference value :  1.29584e-06
 Reference value :  1.32561e-06
 Reference value :  1.38515e-06
 Reference value :  1.50000e-06
 Reference value :  1.50001e-06
 Reference value :  1.50003e-06
 Reference value :  1.50007e-06
 Reference value :  1.50010e-06
 Reference value :  1.50010e-06
 Reference value :  1.50011e-06
 Reference value :  1.50013e-06
 Reference value :  1.50016e-06
 Reference value :  1.50023e-06
 Reference value :  1.50037e-06
 Reference value :  1.50055e-06
 Reference value :  1.50091e-06
 Reference value :  1.50142e-06
 Reference value :  1.50197e-06
 Reference value :  1.50251e-06
 Reference value :  1.50321e-06
 Reference value :  1.50385e-06
 Reference value :  1.50463e-06
 Reference value :  1.50544e-06
 Reference value :  1.50635e-06
 Reference value :  1.50758e-06
 Reference value :  1.50880e-06
 Reference value :  1.51013e-06
 Reference value :  1.51163e-06
 Reference value :  1.51310e-06
 Reference value :  1.51460e-06
 Reference value :  1.51619e-06
 Reference value :  1.51783e-06
 Reference value :  1.51965e-06
 Reference value :  1.52329e-06
 Reference value :  1.53056e-06
 Reference value :  1.54287e-06
 Reference value :  1.56747e-06
 Reference value :  1.61669e-06
 Reference value :  1.71512e-06
 Reference value :  1.75010e-06
 Reference value :  1.75011e-06
 Reference value :  1.75013e-06
 Reference value :  1.75017e-06
 Reference value :  1.75020e-06
 Reference value :  1.75020e-06
 Reference value :  1.75020e-06
 Reference value :  1.75021e-06
 Reference value :  1.75021e-06
 Reference value :  1.75022e-06
 Reference value :  1.75025e-06
 Reference value :  1.75029e-06
 Reference value :  1.75039e-06
 Reference value :  1.75058e-06
 Reference value :  1.75091e-06
 Reference value :  1.75146e-06
 Reference value :  1.75208e-06
 Reference value :  1.75275e-06
 Reference value :  1.75348e-06
 Reference value :  1.75451e-06
 Reference value :  1.75525e-06
 Reference value :  1.75610e-06
 Reference value :  1.75684e-06
 Reference value :  1.75767e-06
 Reference value :  1.75868e-06
 Reference value :  1.75980e-06
 Reference value :  1.76095e-06
 Reference value :  1.76261e-06
 Reference value :  1.76449e-06
 Reference value :  1.76700e-06
 Reference value :  1.77024e-06
 Reference value :  1.77488e-06
 Reference value :  1.78417e-06
 Reference value :  1.80075e-06
 Reference value :  1.83390e-06
 Reference value :  1.90020e-06
 Reference value :  2.00000e-06
 Reference value :  2.00001e-06
 Reference value :  2.00003e-06
 Reference value :  2.00007e-06
 Reference value :  2.00010e-06
 Reference value :  2.00010e-06
 Reference value :  2.00011e-06
 Reference value :  2.00013e-06
 Reference value :  2.00016e-06
 Reference value :  2.00023e-06
 Reference value :  2.00037e-06
 Reference value :  2.00054e-06
 Reference value :  2.00090e-06
 Reference value :  2.00141e-06
 Reference value :  2.00196e-06
 Reference value :  2.00255e-06
 Reference value :  2.00319e-06
 Reference value :  2.00387e-06
 Reference value :  2.00463e-06
 Reference value :  2.00544e-06
 Reference value :  2.00621e-06
 Reference value :  2.00702e-06
 Reference value :  2.00787e-06
 Reference value :  2.00875e-06
 Reference value :  2.00965e-06
 Reference value :  2.01103e-06
 Reference value :  2.01234e-06
 Reference value :  2.01426e-06
 Reference value :  2.01622e-06
 Reference value :  2.01808e-06
 Reference value :  2.02011e-06
 Reference value :  2.02175e-06
 Reference value :  2.02354e-06
 Reference value :  2.02526e-06
 Reference value :  2.02703e-06
 Reference value :  2.02922e-06
 Reference value :  2.03122e-06
 Reference value :  2.03442e-06
 Reference value :  2.03849e-06
 Reference value :  2.04651e-06
 Reference value :  2.06098e-06
 Reference value :  2.08662e-06
 Reference value :  2.13261e-06
 Reference value :  2.18061e-06
 Reference value :  2.25010e-06
 Reference value :  2.25011e-06
 Reference value :  2.25013e-06
 Reference value :  2.25017e-06
 Reference value :  2.25020e-06
 Reference value :  2.25020e-06
 Reference value :  2.25020e-06
 Reference value :  2.25021e-06
 Reference value :  2.25021e-06
 Reference value :  2.25022e-06
 Reference value :  2.25025e-06
 Reference value :  2.25029e-06
 Reference value :  2.25039e-06
 Reference value :  2.25058e-06
 Reference value :  2.25091e-06
 Reference value :  2.25146e-06
 Reference value :  2.25208e-06
 Reference value :  2.25275e-06
 Reference value :  2.25348e-06
 Reference value :  2.25450e-06
 Reference value :  2.25524e-06
 Reference value :  2.25608e-06
 Reference value :  2.25696e-06
 Reference value :  2.25788e-06
 Reference value :  2.25915e-06
 Reference value :  2.26097e-06
 Reference value :  2.26315e-06
 Reference value :  2.26626e-06
 Reference value :  2.27050e-06
 Reference value :  2.27898e-06
 Reference value :  2.29593e-06
 Reference value :  2.32531e-06
 Reference value :  2.38405e-06
 Reference value :  2.44496e-06
 Reference value :  2.50000e-06
 Reference value :  2.50001e-06
 Reference value :  2.50003e-06
 Reference value :  2.50007e-06
 Reference value :  2.50010e-06
 Reference value :  2.50010e-06
 Reference value :  2.50011e-06
 Reference value :  2.50013e-06
 Reference value :  2.50016e-06
 Reference value :  2.50023e-06
 Reference value :  2.50037e-06
 Reference value :  2.50054e-06
 Reference value :  2.50090e-06
 Reference value :  2.50141e-06
 Reference value :  2.50196e-06
 Reference value :  2.50251e-06
 Reference value :  2.50321e-06
 Reference value :  2.50385e-06
 Reference value :  2.50462e-06
 Reference value :  2.50543e-06
 Reference value :  2.50634e-06
 Reference value :  2.50757e-06
 Reference value :  2.50879e-06
 Reference value :  2.51012e-06
 Reference value :  2.51161e-06
 Reference value :  2.51308e-06
 Reference value :  2.51454e-06
 Reference value :  2.51610e-06
 Reference value :  2.51768e-06
 Reference value :  2.51946e-06
 Reference value :  2.52303e-06
 Reference value :  2.53016e-06
 Reference value :  2.54265e-06
 Reference value :  2.56764e-06
 Reference value :  2.61761e-06
 Reference value :  2.71756e-06
 Reference value :  2.75010e-06
 Reference value :  2.75011e-06
 Reference value :  2.75013e-06
 Reference value :  2.75017e-06
 Reference value :  2.75020e-06
 Reference value :  2.75020e-06
 Reference value :  2.75020e-06
 Reference value :  2.75021e-06
 Reference value :  2.75021e-06
 Reference value :  2.75022e-06
 Reference value :  2.75025e-06
 Reference value :  2.75029e-06
 Reference value :  2.75039e-06
 Reference value :  2.75058e-06
 Reference value :  2.75091e-06
 Reference value :  2.75145e-06
 Reference value :  2.75208e-06
 Reference value :  2.75275e-06
 Reference value :  2.75348e-06
 Reference value :  2.75450e-06
 Reference value :  2.75524e-06
 Reference value :  2.75609e-06
 Reference value :  2.75683e-06
 Reference value :  2.75766e-06
 Reference value :  2.75867e-06
 Reference value :  2.75979e-06
 Reference value :  2.76092e-06
 Reference value :  2.76260e-06
 Reference value :  2.76445e-06
 Reference value :  2.76697e-06
 Reference value :  2.77017e-06
 Reference value :  2.77478e-06
 Reference value :  2.78402e-06
 Reference value :  2.79918e-06
 Reference value :  2.82950e-06
 Reference value :  2.89015e-06
 Reference value :  3.00000e-06
 Reference value :  3.00001e-06
 Reference value :  3.00003e-06
 Reference value :  3.00007e-06
 Reference value :  3.00010e-06
 Reference value :  3.00010e-06
 Reference value :  3.00011e-06
 Reference value :  3.00013e-06
 Reference value :  3.00016e-06
 Reference value :  3.00023e-06
 Reference value :  3.00037e-06
 Reference value :  3.00054e-06
 Reference value :  3.00090e-06
 Reference value :  3.00141e-06
 Reference value :  3.00196e-06
 Reference value :  3.00254e-06
 Reference value :  3.00319e-06
 Reference value :  3.00387e-06
 Reference value :  3.00463e-06
 Reference value :  3.00544e-06
 Reference value :  3.00628e-06
 Reference value :  3.00707e-06
 Reference value :  3.00795e-06
 Reference value :  3.00886e-06
 Reference value :  3.00978e-06
 Reference value :  3.01109e-06
 Reference value :  3.01259e-06
 Reference value :  3.01473e-06
 Reference value :  3.01630e-06
 Reference value :  3.01799e-06
 Reference value :  3.01978e-06
 Reference value :  3.02119e-06
 Reference value :  3.02259e-06
 Reference value :  3.02426e-06
 Reference value :  3.02586e-06
 Reference value :  3.02734e-06
 Reference value :  3.02929e-06
 Reference value :  3.03172e-06
 Reference value :  3.03435e-06
 Reference value :  3.03891e-06
 Reference value :  3.04516e-06
 Reference value :  3.05539e-06
 Reference value :  3.07236e-06
 Reference value :  3.09934e-06
 Reference value :  3.14132e-06
 Reference value :  3.18126e-06
 Reference value :  3.21798e-06
 Reference value :  3.25010e-06
 Reference value :  3.25011e-06
 Reference value :  3.25013e-06
 Reference value :  3.25017e-06
 Reference value :  3.25020e-06
 Reference value :  3.25020e-06
 Reference value :  3.25020e-06
 Reference value :  3.25021e-06
 Reference value :  3.25021e-06
 Reference value :  3.25022e-06
 Reference value :  3.25025e-06
 Reference value :  3.25030e-06
 Reference value :  3.25039e-06
 Reference value :  3.25059e-06
 Reference value :  3.25093e-06
 Reference value :  3.25146e-06
 Reference value :  3.25210e-06
 Reference value :  3.25276e-06
 Reference value :  3.25349e-06
 Reference value :  3.25452e-06
 Reference value :  3.25524e-06
 Reference value :  3.25608e-06
 Reference value :  3.25697e-06
 Reference value :  3.25788e-06
 Reference value :  3.25915e-06
 Reference value :  3.26099e-06
 Reference value :  3.26316e-06
 Reference value :  3.26630e-06
 Reference value :  3.27053e-06
 Reference value :  3.27897e-06
 Reference value :  3.29587e-06
 Reference value :  3.32518e-06
 Reference value :  3.38381e-06
 Reference value :  3.49517e-06
 Reference value :  3.50000e-06
 Reference value :  3.50001e-06
 Reference value :  3.50003e-06
 Reference value :  3.50007e-06
 Reference value :  3.50010e-06
 Reference value :  3.50010e-06
 Reference value :  3.50011e-06
 Reference value :  3.50013e-06
 Reference value :  3.50016e-06
 Reference value :  3.50023e-06
 Reference value :  3.50037e-06
 Reference value :  3.50054e-06
 Reference value :  3.50090e-06
 Reference value :  3.50141e-06
 Reference value :  3.50196e-06
 Reference value :  3.50251e-06
 Reference value :  3.50321e-06
 Reference value :  3.50385e-06
 Reference value :  3.50462e-06
 Reference value :  3.50543e-06
 Reference value :  3.50629e-06
 Reference value :  3.50753e-06
 Reference value :  3.50871e-06
 Reference value :  3.51007e-06
 Reference value :  3.51160e-06
 Reference value :  3.51301e-06
 Reference value :  3.51436e-06
 Reference value :  3.51585e-06
 Reference value :  3.51733e-06
 Reference value :  3.51906e-06
 Reference value :  3.52251e-06
 Reference value :  3.52820e-06
 Reference value :  3.53959e-06
 Reference value :  3.56237e-06
 Reference value :  3.60791e-06
 Reference value :  3.69901e-06
 Reference value :  3.75010e-06
 Reference value :  3.75011e-06
 Reference value :  3.75013e-06
 Reference value :  3.75017e-06
 Reference value :  3.75020e-06
 Reference value :  3.75020e-06
 Reference value :  3.75020e-06
 Reference value :  3.75021e-06
 Reference value :  3.75021e-06
 Reference value :  3.75022e-06
 Reference value :  3.75025e-06
 Reference value :  3.75029e-06
 Reference value :  3.75039e-06
 Reference value :  3.75058e-06
 Reference value :  3.75091e-06
 Reference value :  3.75145e-06
 Reference value :  3.75208e-06
 Reference value :  3.75275e-06
 Reference value :  3.75348e-06
 Reference value :  3.75450e-06
 Reference value :  3.75524e-06
 Reference value :  3.75609e-06
 Reference value :  3.75684e-06
 Reference value :  3.75766e-06
 Reference value :  3.75867e-06
 Reference value :  3.75979e-06
 Reference value :  3.76093e-06
 Reference value :  3.76260e-06
 Reference value :  3.76447e-06
 Reference value :  3.76699e-06
 Reference value :  3.77021e-06
 Reference value :  3.77484e-06
 Reference value :  3.78411e-06
 Reference value :  3.80015e-06
 Reference value :  3.83223e-06
 Reference value :  3.89640e-06
 Reference value :  4.00000e-06
 Reference value :  4.00001e-06
 Reference value :  4.00003e-06
 Reference value :  4.00007e-06
 Reference value :  4.00010e-06
 Reference value :  4.00010e-06
 Reference value :  4.00011e-06
 Reference value :  4.00013e-06
 Reference value :  4.00016e-06
 Reference value :  4.00023e-06
 Reference value :  4.00037e-06
 Reference value :  4.00054e-06
 Reference value :  4.00090e-06
 Reference value :  4.00141e-06
 Reference value :  4.00196e-06
 Reference value :  4.00254e-06
 Reference value :  4.00319e-06
 Reference value :  4.00387e-06
 Reference value :  4.00463e-06
 Reference value :  4.00544e-06
 Reference value :  4.00622e-06
 Reference value :  4.00702e-06
 Reference value :  4.00788e-06
 Reference value :  4.00878e-06
 Reference value :  4.00969e-06
 Reference value :  4.01097e-06
 Reference value :  4.01246e-06
 Reference value :  4.01389e-06
 Reference value :  4.01545e-06
 Reference value :  4.01724e-06
 Reference value :  4.01886e-06
 Reference value :  4.02057e-06
 Reference value :  4.02181e-06
 Reference value :  4.02320e-06
 Reference value :  4.02454e-06
 Reference value :  4.02597e-06
 Reference value :  4.02767e-06
 Reference value :  4.02935e-06
 Reference value :  4.03224e-06
 Reference value :  4.03491e-06
 Reference value :  4.04026e-06
 Reference value :  4.05063e-06
 Reference value :  4.06487e-06
 Reference value :  4.09094e-06
 Reference value :  4.11089e-06
 Reference value :  4.13465e-06
 Reference value :  4.15087e-06
 Reference value :  4.16572e-06
 Reference value :  4.18129e-06
 Reference value :  4.19937e-06
 Reference value :  4.22124e-06
 Reference value :  4.25010e-06
 Reference value :  4.25011e-06
 Reference value :  4.25013e-06
 Reference value :  4.25017e-06
 Reference value :  4.25020e-06
 Reference value :  4.25020e-06
 Reference value :  4.25020e-06
 Reference value :  4.25021e-06
 Reference value :  4.25021e-06
 Reference value :  4.25022e-06
 Reference value :  4.25025e-06
 Reference value :  4.25030e-06
 Reference value :  4.25039e-06
 Reference value :  4.25059e-06
 Reference value :  4.25092e-06
 Reference value :  4.25146e-06
 Reference value :  4.25210e-06
 Reference value :  4.25275e-06
 Reference value :  4.25349e-06
 Reference value :  4.25451e-06
 Reference value :  4.25524e-06
 Reference value :  4.25608e-06
 Reference value :  4.25696e-06
 Reference value :  4.25787e-06
 Reference value :  4.25914e-06
 Reference value :  4.26097e-06
 Reference value :  4.26318e-06
 Reference value :  4.26627e-06
 Reference value :  4.27055e-06
 Reference value :  4.27910e-06
 Reference value :  4.29619e-06
 Reference value :  4.32560e-06
 Reference value :  4.38441e-06
 Reference value :  4.50000e-06
 Reference value :  4.50001e-06
 Reference value :  4.50003e-06
 Reference value :  4.50007e-06
 Reference value :  4.50010e-06
 Reference value :  4.50010e-06
 Reference value :  4.50011e-06
 Reference value :  4.50013e-06
 Reference value :  4.50016e-06
 Reference value :  4.50023e-06
 Reference value :  4.50037e-06
 Reference value :  4.50055e-06
 Reference value :  4.50091e-06
 Reference value :  4.50142e-06
 Reference value :  4.50197e-06
 Reference value :  4.50251e-06
 Reference value :  4.50321e-06
 Reference value :  4.50385e-06
 Reference value :  4.50462e-06
 Reference value :  4.50544e-06
 Reference value :  4.50629e-06
 Reference value :  4.50754e-06
 Reference value :  4.50871e-06
 Reference value :  4.50998e-06
 Reference value :  4.51140e-06
 Reference value :  4.51289e-06
 Reference value :  4.51429e-06
 Reference value :  4.51576e-06
 Reference value :  4.51733e-06
 Reference value :  4.51912e-06
 Reference value :  4.52247e-06
 Reference value :  4.52740e-06
 Reference value :  4.53727e-06
 Reference value :  4.55653e-06
 Reference value :  4.59352e-06
 Reference value :  4.66751e-06
 Reference value :  4.75010e-06
 Reference value :  4.75011e-06
 Reference value :  4.75013e-06
 Reference value :  4.75017e-06
 Reference value :  4.75020e-06
 Reference value :  4.75020e-06
 Reference value :  4.75020e-06
 Reference value :  4.75021e-06
 Reference value :  4.75021e-06
 Reference value :  4.75022e-06
 Reference value :  4.75025e-06
 Reference value :  4.75029e-06
 Reference value :  4.75039e-06
 Reference value :  4.75058e-06
 Reference value :  4.75091e-06
 Reference value :  4.75145e-06
 Reference value :  4.75208e-06
 Reference value :  4.75274e-06
 Reference value :  4.75347e-06
 Reference value :  4.75449e-06
 Reference value :  4.75523e-06
 Reference value :  4.75608e-06
 Reference value :  4.75683e-06
 Reference value :  4.75765e-06
 Reference value :  4.75866e-06
 Reference value :  4.75977e-06
 Reference value :  4.76091e-06
 Reference value :  4.76257e-06
 Reference value :  4.76444e-06
 Reference value :  4.76695e-06
 Reference value :  4.77015e-06
 Reference value :  4.77475e-06
 Reference value :  4.78397e-06
 Reference value :  4.79956e-06
 Reference value :  4.83076e-06
 Reference value :  4.89314e-06
 Reference value :  5.00000e-06
 Reference value :  5.00001e-06
 Reference value :  5.00003e-06
 Reference value :  5.00007e-06
 Reference value :  5.00010e-06
 Reference value :  5.00010e-06
 Reference value :  5.00011e-06
 Reference value :  5.00013e-06
 Reference value :  5.00016e-06
 Reference value :  5.00023e-06
 Reference value :  5.00037e-06
 Reference value :  5.00054e-06
 Reference value :  5.00090e-06
 Reference value :  5.00141e-06
 Reference value :  5.00196e-06
 Reference value :  5.00254e-06
 Reference value :  5.00320e-06
 Reference value :  5.00388e-06
 Reference value :  5.00465e-06
 Reference value :  5.00546e-06
 Reference value :  5.00626e-06
 Reference value :  5.00708e-06
 Reference value :  5.00788e-06
 Reference value :  5.00879e-06
 Reference value :  5.00968e-06
 Reference value :  5.01088e-06
 Reference value :  5.01254e-06
 Reference value :  5.01381e-06
 Reference value :  5.01520e-06
 Reference value :  5.01656e-06
 Reference value :  5.01814e-06
 Reference value :  5.01960e-06
 Reference value :  5.02081e-06
 Reference value :  5.02201e-06
 Reference value :  5.02346e-06
 Reference value :  5.02486e-06
 Reference value :  5.02626e-06
 Reference value :  5.02813e-06
 Reference value :  5.02985e-06
 Reference value :  5.03275e-06
 Reference value :  5.03616e-06
 Reference value :  5.04299e-06
 Reference value :  5.05175e-06
 Reference value :  5.06190e-06
 Reference value :  5.07240e-06
 Reference value :  5.08018e-06
 Reference value :  5.08752e-06
 Reference value :  5.09585e-06
 Reference value :  5.10370e-06
 Reference value :  5.11176e-06
 Reference value :  5.12787e-06
 Reference value :  5.14393e-06
 Reference value :  5.16087e-06
 Reference value :  5.17628e-06
 Reference value :  5.19079e-06
 Reference value :  5.20725e-06
 Reference value :  5.22072e-06
 Reference value :  5.23566e-06
 Reference value :  5.25010e-06
 Reference value :  5.25011e-06
 Reference value :  5.25013e-06
 Reference value :  5.25017e-06
 Reference value :  5.25020e-06
 Reference value :  5.25020e-06
 Reference value :  5.25020e-06
 Reference value :  5.25021e-06
 Reference value :  5.25021e-06
 Reference value :  5.25022e-06
 Reference value :  5.25025e-06
 Reference value :  5.25029e-06
 Reference value :  5.25039e-06
 Reference value :  5.25058e-06
 Reference value :  5.25092e-06
 Reference value :  5.25145e-06
 Reference value :  5.25208e-06
 Reference value :  5.25274e-06
 Reference value :  5.25347e-06
 Reference value :  5.25449e-06
 Reference value :  5.25521e-06
 Reference value :  5.25605e-06
 Reference value :  5.25693e-06
 Reference value :  5.25784e-06
 Reference value :  5.25911e-06
 Reference value :  5.26094e-06
 Reference value :  5.26312e-06
 Reference value :  5.26620e-06
 Reference value :  5.27044e-06
 Reference value :  5.27893e-06
 Reference value :  5.29569e-06
 Reference value :  5.32454e-06
 Reference value :  5.38225e-06
 Reference value :  5.46116e-06
 Reference value :  5.50000e-06
 Reference value :  5.50001e-06
 Reference value :  5.50003e-06
 Reference value :  5.50007e-06
 Reference value :  5.50010e-06
 Reference value :  5.50010e-06
 Reference value :  5.50011e-06
 Reference value :  5.50013e-06
 Reference value :  5.50016e-06
 Reference value :  5.50023e-06
 Reference value :  5.50037e-06
 Reference value :  5.50054e-06
 Reference value :  5.50090e-06
 Reference value :  5.50141e-06
 Reference value :  5.50196e-06
 Reference value :  5.50251e-06
 Reference value :  5.50321e-06
 Reference value :  5.50385e-06
 Reference value :  5.50462e-06
 Reference value :  5.50544e-06
 Reference value :  5.50635e-06
 Reference value :  5.50757e-06
 Reference value :  5.50880e-06
 Reference value :  5.51004e-06
 Reference value :  5.51138e-06
 Reference value :  5.51302e-06
 Reference value :  5.51452e-06
 Reference value :  5.51607e-06
 Reference value :  5.51784e-06
 Reference value :  5.51982e-06
 Reference value :  5.52326e-06
 Reference value :  5.52829e-06
 Reference value :  5.53756e-06
 Reference value :  5.55459e-06
 Reference value :  5.58561e-06
 Reference value :  5.64615e-06
 Reference value :  5.75010e-06
 Reference value :  5.75011e-06
 Reference value :  5.75013e-06
 Reference value :  5.75017e-06
 Reference value :  5.75020e-06
 Reference value :  5.75020e-06
 Reference value :  5.75020e-06
 Reference value :  5.75021e-06
 Reference value :  5.75021e-06
 Reference value :  5.75022e-06
 Reference value :  5.75025e-06
 Reference value :  5.75029e-06
 Reference value :  5.75039e-06
 Reference value :  5.75058e-06
 Reference value :  5.75091e-06
 Reference value :  5.75145e-06
 Reference value :  5.75208e-06
 Reference value :  5.75274e-06
 Reference value :  5.75347e-06
 Reference value :  5.75449e-06
 Reference value :  5.75523e-06
 Reference value :  5.75609e-06
 Reference value :  5.75684e-06
 Reference value :  5.75766e-06
 Reference value :  5.75867e-06
 Reference value :  5.75979e-06
 Reference value :  5.76094e-06
 Reference value :  5.76259e-06
 Reference value :  5.76448e-06
 Reference value :  5.76699e-06
 Reference value :  5.77022e-06
 Reference value :  5.77485e-06
 Reference value :  5.78413e-06
 Reference value :  5.80046e-06
 Reference value :  5.83312e-06
 Reference value :  5.89844e-06
 Reference value :  6.00000e-06
 Reference value :  6.00001e-06
 Reference value :  6.00003e-06
 Reference value :  6.00007e-06
 Reference value :  6.00010e-06
 Reference value :  6.00010e-06
 Reference value :  6.00011e-06
 Reference value :  6.00013e-06
 Reference value :  6.00016e-06
 Reference value :  6.00023e-06
 Reference value :  6.00037e-06
 Reference value :  6.00054e-06
 Reference value :  6.00090e-06
 Reference value :  6.00141e-06
 Reference value :  6.00196e-06
 Reference value :  6.00255e-06
 Reference value :  6.00319e-06
 Reference value :  6.00387e-06
 Reference value :  6.00463e-06
 Reference value :  6.00544e-06
 Reference value :  6.00629e-06
 Reference value :  6.00708e-06
 Reference value :  6.00782e-06
 Reference value :  6.00867e-06
 Reference value :  6.00957e-06
 Reference value :  6.01070e-06
 Reference value :  6.01224e-06
 Reference value :  6.01382e-06
 Reference value :  6.01536e-06
 Reference value :  6.01717e-06
 Reference value :  6.01884e-06
 Reference value :  6.02054e-06
 Reference value :  6.02178e-06
 Reference value :  6.02292e-06
 Reference value :  6.02417e-06
 Reference value :  6.02558e-06
 Reference value :  6.02686e-06
 Reference value :  6.02845e-06
 Reference value :  6.03076e-06
 Reference value :  6.03303e-06
 Reference value :  6.03710e-06
 Reference value :  6.04171e-06
 Reference value :  6.04723e-06
 Reference value :  6.05235e-06
 Reference value :  6.05872e-06
 Reference value :  6.06308e-06
 Reference value :  6.06720e-06
 Reference value :  6.07216e-06
 Reference value :  6.07757e-06
 Reference value :  6.08558e-06
 Reference value :  6.09307e-06
 Reference value :  6.10805e-06
 Reference value :  6.12896e-06
 Reference value :  6.16121e-06
 Reference value :  6.21702e-06
 Reference value :  6.25010e-06
 Reference value :  6.25011e-06
 Reference value :  6.25013e-06
 Reference value :  6.25017e-06
 Reference value :  6.25020e-06
 Reference value :  6.25020e-06
 Reference value :  6.25020e-06
 Reference value :  6.25021e-06
 Reference value :  6.25021e-06
 Reference value :  6.25022e-06
 Reference value :  6.25025e-06
 Reference value :  6.25030e-06
 Reference value :  6.25039e-06
 Reference value :  6.25059e-06
 Reference value :  6.25093e-06
 Reference value :  6.25146e-06
 Reference value :  6.25210e-06
 Reference value :  6.25275e-06
 Reference value :  6.25349e-06
 Reference value :  6.25451e-06
 Reference value :  6.25526e-06
 Reference value :  6.25612e-06
 Reference value :  6.25699e-06
 Reference value :  6.25791e-06
 Reference value :  6.25922e-06
 Reference value :  6.26099e-06
 Reference value :  6.26319e-06
 Reference value :  6.26633e-06
 Reference value :  6.27061e-06
 Reference value :  6.27917e-06
 Reference value :  6.29593e-06
 Reference value :  6.32473e-06
 Reference value :  6.38233e-06
 Reference value :  6.49113e-06
 Reference value :  6.50000e-06
 Reference value :  6.50001e-06
 Reference value :  6.50003e-06
 Reference value :  6.50007e-06
 Reference value :  6.50010e-06
 Reference value :  6.50010e-06
 Reference value :  6.50011e-06
 Reference value :  6.50013e-06
 Reference value :  6.50016e-06
 Reference value :  6.50023e-06
 Reference value :  6.50037e-06
 Reference value :  6.50054e-06
 Reference value :  6.50090e-06
 Reference value :  6.50141e-06
 Reference value :  6.50196e-06
 Reference value :  6.50255e-06
 Reference value :  6.50319e-06
 Reference value :  6.50387e-06
 Reference value :  6.50464e-06
 Reference value :  6.50546e-06
 Reference value :  6.50632e-06
 Reference value :  6.50752e-06
 Reference value :  6.50872e-06
 Reference value :  6.51002e-06
 Reference value :  6.51147e-06
 Reference value :  6.51293e-06
 Reference value :  6.51434e-06
 Reference value :  6.51582e-06
 Reference value :  6.51744e-06
 Reference value :  6.51928e-06
 Reference value :  6.52263e-06
 Reference value :  6.52755e-06
 Reference value :  6.53720e-06
 Reference value :  6.55538e-06
 Reference value :  6.58980e-06
 Reference value :  6.65866e-06
 Reference value :  6.75010e-06
 Reference value :  6.75011e-06
 Reference value :  6.75013e-06
 Reference value :  6.75017e-06
 Reference value :  6.75020e-06
 Reference value :  6.75020e-06
 Reference value :  6.75020e-06
 Reference value :  6.75021e-06
 Reference value :  6.75021e-06
 Reference value :  6.75022e-06
 Reference value :  6.75025e-06
 Reference value :  6.75029e-06
 Reference value :  6.75039e-06
 Reference value :  6.75058e-06
 Reference value :  6.75091e-06
 Reference value :  6.75145e-06
 Reference value :  6.75208e-06
 Reference value :  6.75275e-06
 Reference value :  6.75348e-06
 Reference value :  6.75450e-06
 Reference value :  6.75523e-06
 Reference value :  6.75609e-06
 Reference value :  6.75683e-06
 Reference value :  6.75765e-06
 Reference value :  6.75866e-06
 Reference value :  6.75977e-06
 Reference value :  6.76201e-06
 Reference value :  6.76437e-06
 Reference value :  6.76834e-06
 Reference value :  6.77328e-06
 Reference value :  6.78315e-06
 Reference value :  6.80288e-06
 Reference value :  6.84101e-06
 Reference value :  6.91726e-06
 Reference value :  7.00000e-06
 Reference value :  7.00001e-06
 Reference value :  7.00003e-06
 Reference value :  7.00007e-06
 Reference value :  7.00010e-06
 Reference value :  7.00010e-06
 Reference value :  7.00011e-06
 Reference value :  7.00013e-06
 Reference value :  7.00016e-06
 Reference value :  7.00023e-06
 Reference value :  7.00037e-06
 Reference value :  7.00054e-06
 Reference value :  7.00090e-06
 Reference value :  7.00141e-06
 Reference value :  7.00196e-06
 Reference value :  7.00255e-06
 Reference value :  7.00320e-06
 Reference value :  7.00387e-06
 Reference value :  7.00463e-06
 Reference value :  7.00545e-06
 Reference value :  7.00635e-06
 Reference value :  7.00728e-06
 Reference value :  7.00805e-06
 Reference value :  7.00893e-06
 Reference value :  7.00992e-06
 Reference value :  7.01107e-06
 Reference value :  7.01294e-06
 Reference value :  7.01544e-06
 Reference value :  7.01821e-06
 Reference value :  7.02044e-06
 Reference value :  7.02228e-06
 Reference value :  7.02402e-06
 Reference value :  7.02570e-06
 Reference value :  7.02746e-06
 Reference value :  7.02945e-06
 Reference value :  7.03162e-06
 Reference value :  7.03421e-06
 Reference value :  7.03806e-06
 Reference value :  7.04348e-06
 Reference value :  7.05190e-06
 Reference value :  7.06053e-06
 Reference value :  7.06672e-06
 Reference value :  7.07281e-06
 Reference value :  7.08010e-06
 Reference value :  7.08765e-06
 Reference value :  7.09841e-06
 Reference value :  7.10820e-06
 Reference value :  7.11929e-06
 Reference value :  7.13414e-06
 Reference value :  7.15656e-06
 Reference value :  7.18842e-06
 Reference value :  7.23802e-06
 Reference value :  7.25010e-06
 Reference value :  7.25011e-06
 Reference value :  7.25013e-06
 Reference value :  7.25017e-06
 Reference value :  7.25020e-06
 Reference value :  7.25020e-06
 Reference value :  7.25020e-06
 Reference value :  7.25021e-06
 Reference value :  7.25021e-06
 Reference value :  7.25022e-06
 Reference value :  7.25025e-06
 Reference value :  7.25029e-06
 Reference value :  7.25039e-06
 Reference value :  7.25058e-06
 Reference value :  7.25092e-06
 Reference value :  7.25145e-06
 Reference value :  7.25209e-06
 Reference value :  7.25275e-06
 Reference value :  7.25348e-06
 Reference value :  7.25450e-06
 Reference value :  7.25520e-06
 Reference value :  7.25601e-06
 Reference value :  7.25692e-06
 Reference value :  7.25784e-06
 Reference value :  7.25908e-06
 Reference value :  7.26109e-06
 Reference value :  7.26320e-06
 Reference value :  7.26640e-06
 Reference value :  7.27058e-06
 Reference value :  7.27895e-06
 Reference value :  7.29567e-06
 Reference value :  7.32406e-06
 Reference value :  7.38083e-06
 Reference value :  7.49437e-06
 Reference value :  7.50000e-06
 Reference value :  7.50001e-06
 Reference value :  7.50003e-06
 Reference value :  7.50007e-06
 Reference value :  7.50010e-06
 Reference value :  7.50010e-06
 Reference value :  7.50011e-06
 Reference value :  7.50013e-06
 Reference value :  7.50016e-06
 Reference value :  7.50023e-06
 Reference value :  7.50037e-06
 Reference value :  7.50055e-06
 Reference value :  7.50091e-06
 Reference value :  7.50141e-06
 Reference value :  7.50195e-06
 Reference value :  7.50249e-06
 Reference value :  7.50318e-06
 Reference value :  7.50383e-06
 Reference value :  7.50461e-06
 Reference value :  7.50542e-06
 Reference value :  7.50634e-06
 Reference value :  7.50756e-06
 Reference value :  7.50878e-06
 Reference value :  7.51016e-06
 Reference value :  7.51171e-06
 Reference value :  7.51313e-06
 Reference value :  7.51449e-06
 Reference value :  7.51597e-06
 Reference value :  7.51752e-06
 Reference value :  7.51929e-06
 Reference value :  7.52272e-06
 Reference value :  7.52767e-06
 Reference value :  7.53756e-06
 Reference value :  7.55726e-06
 Reference value :  7.59443e-06
 Reference value :  7.66876e-06
 Reference value :  7.75010e-06
 Reference value :  7.75011e-06
 Reference value :  7.75013e-06
 Reference value :  7.75017e-06
 Reference value :  7.75020e-06
 Reference value :  7.75020e-06
 Reference value :  7.75020e-06
 Reference value :  7.75021e-06
 Reference value :  7.75021e-06
 Reference value :  7.75022e-06
 Reference value :  7.75025e-06
 Reference value :  7.75029e-06
 Reference value :  7.75039e-06
 Reference value :  7.75058e-06
 Reference value :  7.75092e-06
 Reference value :  7.75145e-06
 Reference value :  7.75209e-06
 Reference value :  7.75275e-06
 Reference value :  7.75348e-06
 Reference value :  7.75450e-06
 Reference value :  7.75522e-06
 Reference value :  7.75606e-06
 Reference value :  7.75680e-06
 Reference value :  7.75762e-06
 Reference value :  7.75862e-06
 Reference value :  7.75974e-06
 Reference value :  7.76088e-06
 Reference value :  7.76256e-06
 Reference value :  7.76439e-06
 Reference value :  7.76692e-06
 Reference value :  7.77011e-06
 Reference value :  7.77473e-06
 Reference value :  7.78397e-06
 Reference value :  7.79958e-06
 Reference value :  7.83080e-06
 Reference value :  7.89324e-06
 Reference value :  8.00000e-06
 Reference value :  8.00001e-06
 Reference value :  8.00003e-06
 Reference value :  8.00007e-06
 Reference value :  8.00010e-06
 Reference value :  8.00010e-06
 Reference value :  8.00011e-06
 Reference value :  8.00013e-06
 Reference value :  8.00016e-06
 Reference value :  8.00023e-06
 Reference value :  8.00037e-06
 Reference value :  8.00055e-06
 Reference value :  8.00090e-06
 Reference value :  8.00141e-06
 Reference value :  8.00195e-06
 Reference value :  8.00253e-06
 Reference value :  8.00325e-06
 Reference value :  8.00390e-06
 Reference value :  8.00467e-06
 Reference value :  8.00549e-06
 Reference value :  8.00635e-06
 Reference value :  8.00723e-06
 Reference value :  8.00802e-06
 Reference value :  8.00889e-06
 Reference value :  8.00984e-06
 Reference value :  8.01099e-06
 Reference value :  8.01277e-06
 Reference value :  8.01452e-06
 Reference value :  8.01614e-06
 Reference value :  8.01780e-06
 Reference value :  8.01952e-06
 Reference value :  8.02131e-06
 Reference value :  8.02343e-06
 Reference value :  8.02578e-06
 Reference value :  8.02902e-06
 Reference value :  8.03260e-06
 Reference value :  8.03874e-06
 Reference value :  8.04571e-06
 Reference value :  8.05370e-06
 Reference value :  8.05943e-06
 Reference value :  8.06491e-06
 Reference value :  8.07106e-06
 Reference value :  8.07778e-06
 Reference value :  8.08618e-06
 Reference value :  8.09524e-06
 Reference value :  8.11336e-06
 Reference value :  8.13913e-06
 Reference value :  8.18166e-06
 Reference value :  8.25010e-06
 Reference value :  8.25011e-06
 Reference value :  8.25013e-06
 Reference value :  8.25017e-06
 Reference value :  8.25020e-06
 Reference value :  8.25020e-06
 Reference value :  8.25020e-06
 Reference value :  8.25021e-06
 Reference value :  8.25021e-06
 Reference value :  8.25022e-06
 Reference value :  8.25025e-06
 Reference value :  8.25029e-06
 Reference value :  8.25039e-06
 Reference value :  8.25058e-06
 Reference value :  8.25096e-06
 Reference value :  8.25147e-06
 Reference value :  8.25214e-06
 Reference value :  8.25278e-06
 Reference value :  8.25353e-06
 Reference value :  8.25455e-06
 Reference value :  8.25555e-06
 Reference value :  8.25694e-06
 Reference value :  8.25850e-06
 Reference value :  8.26000e-06
 Reference value :  8.26247e-06
 Reference value :  8.26514e-06
 Reference value :  8.26943e-06
 Reference value :  8.27593e-06
 Reference value :  8.28893e-06
 Reference value :  8.31494e-06
 Reference value :  8.36696e-06
 Reference value :  8.47100e-06
 Reference value :  8.50000e-06
 Reference value :  8.50001e-06
 Reference value :  8.50003e-06
 Reference value :  8.50007e-06
 Reference value :  8.50010e-06
 Reference value :  8.50010e-06
 Reference value :  8.50011e-06
 Reference value :  8.50013e-06
 Reference value :  8.50016e-06
 Reference value :  8.50023e-06
 Reference value :  8.50037e-06
 Reference value :  8.50063e-06
 Reference value :  8.50106e-06
 Reference value :  8.50180e-06
 Reference value :  8.50254e-06
 Reference value :  8.50315e-06
 Reference value :  8.50389e-06
 Reference value :  8.50465e-06
 Reference value :  8.50549e-06
 Reference value :  8.50653e-06
 Reference value :  8.50762e-06
 Reference value :  8.50925e-06
 Reference value :  8.51106e-06
 Reference value :  8.51264e-06
 Reference value :  8.51427e-06
 Reference value :  8.51632e-06
 Reference value :  8.51890e-06
 Reference value :  8.52162e-06
 Reference value :  8.52704e-06
 Reference value :  8.53308e-06
 Reference value :  8.53728e-06
 Reference value :  8.54086e-06
 Reference value :  8.54388e-06
 Reference value :  8.54700e-06
 Reference value :  8.54944e-06
 Reference value :  8.55179e-06
 Reference value :  8.55418e-06
 Reference value :  8.55665e-06
 Reference value :  8.55985e-06
 Reference value :  8.56393e-06
 Reference value :  8.56879e-06
 Reference value :  8.57464e-06
 Reference value :  8.58110e-06
 Reference value :  8.59401e-06
 Reference value :  8.61041e-06
 Reference value :  8.63768e-06
 Reference value :  8.68111e-06
 Reference value :  8.74666e-06
 Reference value :  8.75010e-06
 Reference value :  8.75011e-06
 Reference value :  8.75013e-06
 Reference value :  8.75017e-06
 Reference value :  8.75020e-06
 Reference value :  8.75020e-06
 Reference value :  8.75020e-06
 Reference value :  8.75021e-06
 Reference value :  8.75021e-06
 Reference value :  8.75022e-06
 Reference value :  8.75025e-06
 Reference value :  8.75029e-06
 Reference value :  8.75039e-06
 Reference value :  8.75058e-06
 Reference value :  8.75096e-06
 Reference value :  8.75147e-06
 Reference value :  8.75214e-06
 Reference value :  8.75279e-06
 Reference value :  8.75352e-06
 Reference value :  8.75444e-06
 Reference value :  8.75520e-06
 Reference value :  8.75607e-06
 Reference value :  8.75688e-06
 Reference value :  8.75776e-06
 Reference value :  8.75916e-06
 Reference value :  8.76058e-06
 Reference value :  8.76299e-06
 Reference value :  8.76577e-06
 Reference value :  8.77023e-06
 Reference value :  8.77773e-06
 Reference value :  8.79273e-06
 Reference value :  8.81973e-06
 Reference value :  8.87371e-06
 Reference value :  8.98168e-06
 Reference value :  9.00000e-06
 Reference value :  9.00001e-06
 Reference value :  9.00003e-06
 Reference value :  9.00007e-06
 Reference value :  9.00010e-06
 Reference value :  9.00010e-06
 Reference value :  9.00011e-06
 Reference value :  9.00013e-06
 Reference value :  9.00016e-06
 Reference value :  9.00023e-06
 Reference value :  9.00037e-06
 Reference value :  9.00055e-06
 Reference value :  9.00093e-06
 Reference value :  9.00144e-06
 Reference value :  9.00198e-06
 Reference value :  9.00257e-06
 Reference value :  9.00330e-06
 Reference value :  9.00398e-06
 Reference value :  9.00491e-06
 Reference value :  9.00574e-06
 Reference value :  9.00672e-06
 Reference value :  9.00803e-06
 Reference value :  9.00939e-06
 Reference value :  9.01136e-06
 Reference value :  9.01385e-06
 Reference value :  9.01571e-06
 Reference value :  9.01775e-06
 Reference value :  9.02015e-06
 Reference value :  9.02256e-06
 Reference value :  9.02522e-06
 Reference value :  9.03013e-06
 Reference value :  9.03658e-06
 Reference value :  9.04620e-06
 Reference value :  9.06544e-06
 Reference value :  9.09313e-06
 Reference value :  9.14852e-06
 Reference value :  9.25009e-06
 Reference value :  9.25010e-06
 Reference value :  9.25010e-06
 Reference value :  9.25011e-06
 Reference value :  9.25011e-06
 Reference value :  9.25013e-06
 Reference value :  9.25016e-06
 Reference value :  9.25020e-06
 Reference value :  9.25020e-06
 Reference value :  9.25020e-06
 Reference value :  9.25021e-06
 Reference value :  9.25022e-06
 Reference value :  9.25024e-06
 Reference value :  9.25028e-06
 Reference value :  9.25036e-06
 Reference value :  9.25052e-06
 Reference value :  9.25083e-06
 Reference value :  9.25141e-06
 Reference value :  9.25196e-06
 Reference value :  9.25265e-06
 Reference value :  9.25337e-06
 Reference value :  9.25436e-06
 Reference value :  9.25515e-06
 Reference value :  9.25609e-06
 Reference value :  9.25691e-06
 Reference value :  9.25778e-06
 Reference value :  9.25883e-06
 Reference value :  9.25999e-06
 Reference value :  9.26230e-06
 Reference value :  9.26478e-06
 Reference value :  9.26895e-06
 Reference value :  9.27441e-06
 Reference value :  9.28534e-06
 Reference value :  9.30719e-06
 Reference value :  9.35090e-06
 Reference value :  9.43831e-06
 Reference value :  9.50000e-06
 Reference value :  9.50001e-06
 Reference value :  9.50003e-06
 Reference value :  9.50007e-06
 Reference value :  9.50010e-06
 Reference value :  9.50010e-06
 Reference value :  9.50011e-06
 Reference value :  9.50013e-06
 Reference value :  9.50016e-06
 Reference value :  9.50023e-06
 Reference value :  9.50037e-06
 Reference value :  9.50056e-06
 Reference value :  9.50093e-06
 Reference value :  9.50144e-06
 Reference value :  9.50199e-06
 Reference value :  9.50257e-06
 Reference value :  9.50322e-06
 Reference value :  9.50389e-06
 Reference value :  9.50468e-06
 Reference value :  9.50550e-06
 Reference value :  9.50637e-06
 Reference value :  9.50734e-06
 Reference value :  9.50815e-06
 Reference value :  9.50908e-06
 Reference value :  9.51003e-06
 Reference value :  9.51124e-06
 Reference value :  9.51302e-06
 Reference value :  9.51559e-06
 Reference value :  9.51802e-06
 Reference value :  9.52021e-06
 Reference value :  9.52205e-06
 Reference value :  9.52401e-06
 Reference value :  9.52591e-06
 Reference value :  9.52770e-06
 Reference value :  9.53014e-06
 Reference value :  9.53234e-06
 Reference value :  9.53553e-06
 Reference value :  9.53926e-06
 Reference value :  9.54289e-06
 Reference value :  9.54599e-06
 Reference value :  9.54941e-06
 Reference value :  9.55194e-06
 Reference value :  9.55512e-06
 Reference value :  9.55956e-06
 Reference value :  9.56258e-06
 Reference value :  9.56593e-06
 Reference value :  9.56963e-06
 Reference value :  9.57368e-06
 Reference value :  9.57981e-06
 Reference value :  9.58666e-06
 Reference value :  9.59307e-06
 Reference value :  9.60087e-06
 Reference value :  9.61104e-06
 Reference value :  9.62892e-06
 Reference value :  9.65650e-06
 Reference value :  9.70184e-06
 Reference value :  9.75010e-06
 Reference value :  9.75011e-06
 Reference value :  9.75013e-06
 Reference value :  9.75017e-06
 Reference value :  9.75020e-06
 Reference value :  9.75020e-06
 Reference value :  9.75020e-06
 Reference value :  9.75021e-06
 Reference value :  9.75021e-06
 Reference value :  9.75022e-06
 Reference value :  9.75025e-06
 Reference value :  9.75029e-06
 Reference value :  9.75039e-06
 Reference value :  9.75058e-06
 Reference value :  9.75091e-06
 Reference value :  9.75146e-06
 Reference value :  9.75209e-06
 Reference value :  9.75276e-06
 Reference value :  9.75349e-06
 Reference value :  9.75452e-06
 Reference value :  9.75523e-06
 Reference value :  9.75605e-06
 Reference value :  9.75697e-06
 Reference value :  9.75790e-06
 Reference value :  9.75914e-06
 Reference value :  9.76118e-06
 Reference value :  9.76327e-06
 Reference value :  9.76657e-06
 Reference value :  9.77074e-06
 Reference value :  9.77909e-06
 Reference value :  9.79578e-06
 Reference value :  9.82405e-06
 Reference value :  9.88061e-06
 Reference value :  9.99371e-06
 Reference value :  1.00000e-05
 Reference value :  1.00000e-05
 Reference value :  1.00000e-05
 Reference value :  1.00001e-05
 Reference value :  1.00001e-05
 Reference value :  1.00001e-05
 Reference value :  1.00001e-05
 Reference value :  1.00001e-05
 Reference value :  1.00002e-05
 Reference value :  1.00002e-05
 Reference value :  1.00004e-05
 Reference value :  1.00005e-05
 Reference value :  1.00009e-05
 Reference value :  1.00014e-05
 Reference value :  1.00020e-05
 Reference value :  1.00025e-05
 Reference value :  1.00032e-05
 Reference value :  1.00039e-05
 Reference value :  1.00046e-05
 Reference value :  1.00054e-05
 Reference value :  1.00063e-05
 Reference value :  1.00076e-05
 Reference value :  1.00088e-05
 Reference value :  1.00101e-05
 Reference value :  1.00116e-05
 Reference value :  1.00131e-05
 Reference value :  1.00146e-05
 Reference value :  1.00162e-05
 Reference value :  1.00178e-05
 Reference value :  1.00196e-05
 Reference value :  1.00233e-05
 Reference value :  1.00305e-05
 Reference value :  1.00428e-05
 Reference value :  1.00675e-05
 Reference value :  1.01169e-05
 Reference value :  1.02157e-05
 Reference value :  1.02501e-05
 Reference value :  1.02501e-05
 Reference value :  1.02501e-05
 Reference value :  1.02502e-05
 Reference value :  1.02502e-05
 Reference value :  1.02502e-05
 Reference value :  1.02502e-05
 Reference value :  1.02502e-05
 Reference value :  1.02502e-05
 Reference value :  1.02502e-05
 Reference value :  1.02502e-05
 Reference value :  1.02503e-05
 Reference value :  1.02504e-05
 Reference value :  1.02506e-05
 Reference value :  1.02509e-05
 Reference value :  1.02515e-05
 Reference value :  1.02521e-05
 Reference value :  1.02528e-05
 Reference value :  1.02535e-05
 Reference value :  1.02545e-05
 Reference value :  1.02552e-05
 Reference value :  1.02561e-05
 Reference value :  1.02568e-05
 Reference value :  1.02577e-05
 Reference value :  1.02587e-05
 Reference value :  1.02598e-05
 Reference value :  1.02609e-05
 Reference value :  1.02626e-05
 Reference value :  1.02645e-05
 Reference value :  1.02670e-05
 Reference value :  1.02702e-05
 Reference value :  1.02749e-05
 Reference value :  1.02842e-05
 Reference value :  1.03008e-05
 Reference value :  1.03341e-05
 Reference value :  1.04007e-05
 Reference value :  1.05000e-05
 Reference value :  1.05000e-05
 Reference value :  1.05000e-05
 Reference value :  1.05001e-05
 Reference value :  1.05001e-05
 Reference value :  1.05001e-05
 Reference value :  1.05001e-05
 Reference value :  1.05001e-05
 Reference value :  1.05002e-05
 Reference value :  1.05002e-05
 Reference value :  1.05004e-05
 Reference value :  1.05005e-05
 Reference value :  1.05009e-05
 Reference value :  1.05014e-05
 Reference value :  1.05020e-05
 Reference value :  1.05025e-05
 Reference value :  1.05032e-05
 Reference value :  1.05039e-05
 Reference value :  1.05046e-05
 Reference value :  1.05054e-05
 Reference value :  1.05062e-05
 Reference value :  1.05070e-05
 Reference value :  1.05079e-05
 Reference value :  1.05087e-05
 Reference value :  1.05097e-05
 Reference value :  1.05110e-05
 Reference value :  1.05123e-05
 Reference value :  1.05143e-05
 Reference value :  1.05162e-05
 Reference value :  1.05181e-05
 Reference value :  1.05201e-05
 Reference value :  1.05218e-05
 Reference value :  1.05235e-05
 Reference value :  1.05253e-05
 Reference value :  1.05270e-05
 Reference value :  1.05292e-05
 Reference value :  1.05312e-05
 Reference value :  1.05344e-05
 Reference value :  1.05385e-05
 Reference value :  1.05465e-05
 Reference value :  1.05610e-05
 Reference value :  1.05861e-05
 Reference value :  1.06323e-05
 Reference value :  1.06800e-05
 Reference value :  1.07501e-05
 Reference value :  1.07501e-05
 Reference value :  1.07501e-05
 Reference value :  1.07502e-05
 Reference value :  1.07502e-05
 Reference value :  1.07502e-05
 Reference value :  1.07502e-05
 Reference value :  1.07502e-05
 Reference value :  1.07502e-05
 Reference value :  1.07502e-05
 Reference value :  1.07502e-05
 Reference value :  1.07503e-05
 Reference value :  1.07504e-05
 Reference value :  1.07506e-05
 Reference value :  1.07509e-05
 Reference value :  1.07515e-05
 Reference value :  1.07521e-05
 Reference value :  1.07527e-05
 Reference value :  1.07535e-05
 Reference value :  1.07545e-05
 Reference value :  1.07552e-05
 Reference value :  1.07561e-05
 Reference value :  1.07570e-05
 Reference value :  1.07579e-05
 Reference value :  1.07591e-05
 Reference value :  1.07610e-05
 Reference value :  1.07631e-05
 Reference value :  1.07663e-05
 Reference value :  1.07705e-05
 Reference value :  1.07790e-05
 Reference value :  1.07956e-05
 Reference value :  1.08242e-05
 Reference value :  1.08813e-05
 Reference value :  1.09411e-05
 Reference value :  1.10000e-05
 Reference value :  1.10000e-05
 Reference value :  1.10000e-05
 Reference value :  1.10001e-05
 Reference value :  1.10001e-05
 Reference value :  1.10001e-05
 Reference value :  1.10001e-05
 Reference value :  1.10001e-05
 Reference value :  1.10002e-05
 Reference value :  1.10002e-05
 Reference value :  1.10004e-05
 Reference value :  1.10005e-05
 Reference value :  1.10009e-05
 Reference value :  1.10014e-05
 Reference value :  1.10020e-05
 Reference value :  1.10025e-05
 Reference value :  1.10032e-05
 Reference value :  1.10038e-05
 Reference value :  1.10046e-05
 Reference value :  1.10054e-05
 Reference value :  1.10063e-05
 Reference value :  1.10076e-05
 Reference value :  1.10088e-05
 Reference value :  1.10101e-05
 Reference value :  1.10116e-05
 Reference value :  1.10131e-05
 Reference value :  1.10145e-05
 Reference value :  1.10161e-05
 Reference value :  1.10177e-05
 Reference value :  1.10195e-05
 Reference value :  1.10230e-05
 Reference value :  1.10301e-05
 Reference value :  1.10426e-05
 Reference value :  1.10677e-05
 Reference value :  1.11178e-05
 Reference value :  1.12179e-05
 Reference value :  1.12501e-05
 Reference value :  1.12501e-05
 Reference value :  1.12501e-05
 Reference value :  1.12502e-05
 Reference value :  1.12502e-05
 Reference value :  1.12502e-05
 Reference value :  1.12502e-05
 Reference value :  1.12502e-05
 Reference value :  1.12502e-05
 Reference value :  1.12502e-05
 Reference value :  1.12502e-05
 Reference value :  1.12503e-05
 Reference value :  1.12504e-05
 Reference value :  1.12506e-05
 Reference value :  1.12509e-05
 Reference value :  1.12515e-05
 Reference value :  1.12521e-05
 Reference value :  1.12527e-05
 Reference value :  1.12535e-05
 Reference value :  1.12545e-05
 Reference value :  1.12552e-05
 Reference value :  1.12561e-05
 Reference value :  1.12568e-05
 Reference value :  1.12577e-05
 Reference value :  1.12587e-05
 Reference value :  1.12598e-05
 Reference value :  1.12609e-05
 Reference value :  1.12626e-05
 Reference value :  1.12645e-05
 Reference value :  1.12670e-05
 Reference value :  1.12702e-05
 Reference value :  1.12748e-05
 Reference value :  1.12841e-05
 Reference value :  1.12993e-05
 Reference value :  1.13297e-05
 Reference value :  1.13905e-05
 Reference value :  1.15000e-05
 Reference value :  1.15000e-05
 Reference value :  1.15000e-05
 Reference value :  1.15001e-05
 Reference value :  1.15001e-05
 Reference value :  1.15001e-05
 Reference value :  1.15001e-05
 Reference value :  1.15001e-05
 Reference value :  1.15002e-05
 Reference value :  1.15002e-05
 Reference value :  1.15004e-05
 Reference value :  1.15005e-05
 Reference value :  1.15009e-05
 Reference value :  1.15014e-05
 Reference value :  1.15020e-05
 Reference value :  1.15025e-05
 Reference value :  1.15032e-05
 Reference value :  1.15039e-05
 Reference value :  1.15046e-05
 Reference value :  1.15054e-05
 Reference value :  1.15063e-05
 Reference value :  1.15071e-05
 Reference value :  1.15080e-05
 Reference value :  1.15089e-05
 Reference value :  1.15098e-05
 Reference value :  1.15111e-05
 Reference value :  1.15126e-05
 Reference value :  1.15147e-05
 Reference value :  1.15163e-05
 Reference value :  1.15180e-05
 Reference value :  1.15198e-05
 Reference value :  1.15212e-05
 Reference value :  1.15226e-05
 Reference value :  1.15243e-05
 Reference value :  1.15259e-05
 Reference value :  1.15273e-05
 Reference value :  1.15293e-05
 Reference value :  1.15317e-05
 Reference value :  1.15343e-05
 Reference value :  1.15389e-05
 Reference value :  1.15451e-05
 Reference value :  1.15553e-05
 Reference value :  1.15722e-05
 Reference value :  1.15991e-05
 Reference value :  1.16408e-05
 Reference value :  1.16820e-05
 Reference value :  1.17194e-05
 Reference value :  1.17501e-05
 Reference value :  1.17501e-05
 Reference value :  1.17501e-05
 Reference value :  1.17502e-05
 Reference value :  1.17502e-05
 Reference value :  1.17502e-05
 Reference value :  1.17502e-05
 Reference value :  1.17502e-05
 Reference value :  1.17502e-05
 Reference value :  1.17502e-05
 Reference value :  1.17502e-05
 Reference value :  1.17503e-05
 Reference value :  1.17504e-05
 Reference value :  1.17506e-05
 Reference value :  1.17509e-05
 Reference value :  1.17515e-05
 Reference value :  1.17521e-05
 Reference value :  1.17528e-05
 Reference value :  1.17535e-05
 Reference value :  1.17545e-05
 Reference value :  1.17552e-05
 Reference value :  1.17561e-05
 Reference value :  1.17570e-05
 Reference value :  1.17579e-05
 Reference value :  1.17591e-05
 Reference value :  1.17610e-05
 Reference value :  1.17632e-05
 Reference value :  1.17663e-05
 Reference value :  1.17705e-05
 Reference value :  1.17790e-05
 Reference value :  1.17959e-05
 Reference value :  1.18245e-05
 Reference value :  1.18819e-05
 Reference value :  1.19967e-05
 Reference value :  1.20000e-05
 Reference value :  1.20000e-05
 Reference value :  1.20000e-05
 Reference value :  1.20001e-05
 Reference value :  1.20001e-05
 Reference value :  1.20001e-05
 Reference value :  1.20001e-05
 Reference value :  1.20001e-05
 Reference value :  1.20002e-05
 Reference value :  1.20002e-05
 Reference value :  1.20004e-05
 Reference value :  1.20005e-05
 Reference value :  1.20009e-05
 Reference value :  1.20014e-05
 Reference value :  1.20020e-05
 Reference value :  1.20025e-05
 Reference value :  1.20032e-05
 Reference value :  1.20038e-05
 Reference value :  1.20046e-05
 Reference value :  1.20054e-05
 Reference value :  1.20063e-05
 Reference value :  1.20075e-05
 Reference value :  1.20087e-05
 Reference value :  1.20101e-05
 Reference value :  1.20116e-05
 Reference value :  1.20130e-05
 Reference value :  1.20144e-05
 Reference value :  1.20158e-05
 Reference value :  1.20173e-05
 Reference value :  1.20191e-05
 Reference value :  1.20225e-05
 Reference value :  1.20281e-05
 Reference value :  1.20394e-05
 Reference value :  1.20620e-05
 Reference value :  1.21070e-05
 Reference value :  1.21972e-05
 Reference value :  1.22501e-05
 Reference value :  1.22501e-05
 Reference value :  1.22501e-05
 Reference value :  1.22502e-05
 Reference value :  1.22502e-05
 Reference value :  1.22502e-05
 Reference value :  1.22502e-05
 Reference value :  1.22502e-05
 Reference value :  1.22502e-05
 Reference value :  1.22502e-05
 Reference value :  1.22502e-05
 Reference value :  1.22503e-05
 Reference value :  1.22504e-05
 Reference value :  1.22506e-05
 Reference value :  1.22509e-05
 Reference value :  1.22515e-05
 Reference value :  1.22521e-05
 Reference value :  1.22527e-05
 Reference value :  1.22535e-05
 Reference value :  1.22545e-05
 Reference value :  1.22552e-05
 Reference value :  1.22561e-05
 Reference value :  1.22568e-05
 Reference value :  1.22577e-05
 Reference value :  1.22587e-05
 Reference value :  1.22598e-05
 Reference value :  1.22609e-05
 Reference value :  1.22626e-05
 Reference value :  1.22645e-05
 Reference value :  1.22670e-05
 Reference value :  1.22702e-05
 Reference value :  1.22749e-05
 Reference value :  1.22841e-05
 Reference value :  1.23002e-05
 Reference value :  1.23323e-05
 Reference value :  1.23966e-05
 Reference value :  1.25000e-05
 Reference value :  1.25000e-05
 Reference value :  1.25000e-05
 Reference value :  1.25001e-05
 Reference value :  1.25001e-05
 Reference value :  1.25001e-05
 Reference value :  1.25001e-05
 Reference value :  1.25001e-05
 Reference value :  1.25002e-05
 Reference value :  1.25002e-05
 Reference value :  1.25004e-05
 Reference value :  1.25005e-05
 Reference value :  1.25009e-05
 Reference value :  1.25014e-05
 Reference value :  1.25020e-05
 Reference value :  1.25025e-05
 Reference value :  1.25032e-05
 Reference value :  1.25039e-05
 Reference value :  1.25046e-05
 Reference value :  1.25054e-05
 Reference value :  1.25062e-05
 Reference value :  1.25070e-05
 Reference value :  1.25079e-05
 Reference value :  1.25088e-05
 Reference value :  1.25097e-05
 Reference value :  1.25110e-05
 Reference value :  1.25125e-05
 Reference value :  1.25139e-05
 Reference value :  1.25155e-05
 Reference value :  1.25172e-05
 Reference value :  1.25189e-05
 Reference value :  1.25206e-05
 Reference value :  1.25218e-05
 Reference value :  1.25232e-05
 Reference value :  1.25245e-05
 Reference value :  1.25260e-05
 Reference value :  1.25276e-05
 Reference value :  1.25293e-05
 Reference value :  1.25322e-05
 Reference value :  1.25348e-05
 Reference value :  1.25401e-05
 Reference value :  1.25500e-05
 Reference value :  1.25640e-05
 Reference value :  1.25881e-05
 Reference value :  1.26134e-05
 Reference value :  1.26399e-05
 Reference value :  1.26645e-05
 Reference value :  1.26910e-05
 Reference value :  1.27183e-05
 Reference value :  1.27433e-05
 Reference value :  1.27501e-05
 Reference value :  1.27501e-05
 Reference value :  1.27501e-05
 Reference value :  1.27502e-05
 Reference value :  1.27502e-05
 Reference value :  1.27502e-05
 Reference value :  1.27502e-05
 Reference value :  1.27502e-05
 Reference value :  1.27502e-05
 Reference value :  1.27502e-05
 Reference value :  1.27502e-05
 Reference value :  1.27503e-05
 Reference value :  1.27504e-05
 Reference value :  1.27506e-05
 Reference value :  1.27509e-05
 Reference value :  1.27515e-05
 Reference value :  1.27521e-05
 Reference value :  1.27527e-05
 Reference value :  1.27535e-05
 Reference value :  1.27545e-05
 Reference value :  1.27552e-05
 Reference value :  1.27561e-05
 Reference value :  1.27569e-05
 Reference value :  1.27579e-05
 Reference value :  1.27591e-05
 Reference value :  1.27609e-05
 Reference value :  1.27632e-05
 Reference value :  1.27662e-05
 Reference value :  1.27705e-05
 Reference value :  1.27791e-05
 Reference value :  1.27958e-05
 Reference value :  1.28248e-05
 Reference value :  1.28830e-05
 Reference value :  1.29992e-05
 Reference value :  1.30000e-05
 Reference value :  1.30000e-05
 Reference value :  1.30000e-05
 Reference value :  1.30001e-05
 Reference value :  1.30001e-05
 Reference value :  1.30001e-05
 Reference value :  1.30001e-05
 Reference value :  1.30001e-05
 Reference value :  1.30002e-05
 Reference value :  1.30002e-05
 Reference value :  1.30004e-05
 Reference value :  1.30005e-05
 Reference value :  1.30009e-05
 Reference value :  1.30014e-05
 Reference value :  1.30020e-05
 Reference value :  1.30025e-05
 Reference value :  1.30032e-05
 Reference value :  1.30038e-05
 Reference value :  1.30046e-05
 Reference value :  1.30054e-05
 Reference value :  1.30063e-05
 Reference value :  1.30075e-05
 Reference value :  1.30087e-05
 Reference value :  1.30100e-05
 Reference value :  1.30114e-05
 Reference value :  1.30129e-05
 Reference value :  1.30143e-05
 Reference value :  1.30157e-05
 Reference value :  1.30173e-05
 Reference value :  1.30191e-05
 Reference value :  1.30224e-05
 Reference value :  1.30273e-05
 Reference value :  1.30372e-05
 Reference value :  1.30564e-05
 Reference value :  1.30933e-05
 Reference value :  1.31671e-05
 Reference value :  1.32501e-05
 Reference value :  1.32501e-05
 Reference value :  1.32501e-05
 Reference value :  1.32502e-05
 Reference value :  1.32502e-05
 Reference value :  1.32502e-05
 Reference value :  1.32502e-05
 Reference value :  1.32502e-05
 Reference value :  1.32502e-05
 Reference value :  1.32502e-05
 Reference value :  1.32502e-05
 Reference value :  1.32503e-05
 Reference value :  1.32504e-05
 Reference value :  1.32506e-05
 Reference value :  1.32509e-05
 Reference value :  1.32515e-05
 Reference value :  1.32521e-05
 Reference value :  1.32527e-05
 Reference value :  1.32535e-05
 Reference value :  1.32545e-05
 Reference value :  1.32552e-05
 Reference value :  1.32561e-05
 Reference value :  1.32568e-05
 Reference value :  1.32577e-05
 Reference value :  1.32587e-05
 Reference value :  1.32598e-05
 Reference value :  1.32609e-05
 Reference value :  1.32626e-05
 Reference value :  1.32644e-05
 Reference value :  1.32669e-05
 Reference value :  1.32702e-05
 Reference value :  1.32748e-05
 Reference value :  1.32840e-05
 Reference value :  1.32996e-05
 Reference value :  1.33308e-05
 Reference value :  1.33932e-05
 Reference value :  1.35000e-05
 Reference value :  1.35000e-05
 Reference value :  1.35000e-05
 Reference value :  1.35001e-05
 Reference value :  1.35001e-05
 Reference value :  1.35001e-05
 Reference value :  1.35001e-05
 Reference value :  1.35001e-05
 Reference value :  1.35002e-05
 Reference value :  1.35002e-05
 Reference value :  1.35004e-05
 Reference value :  1.35005e-05
 Reference value :  1.35009e-05
 Reference value :  1.35014e-05
 Reference value :  1.35020e-05
 Reference value :  1.35025e-05
 Reference value :  1.35032e-05
 Reference value :  1.35039e-05
 Reference value :  1.35046e-05
 Reference value :  1.35055e-05
 Reference value :  1.35063e-05
 Reference value :  1.35071e-05
 Reference value :  1.35079e-05
 Reference value :  1.35088e-05
 Reference value :  1.35097e-05
 Reference value :  1.35109e-05
 Reference value :  1.35125e-05
 Reference value :  1.35138e-05
 Reference value :  1.35152e-05
 Reference value :  1.35166e-05
 Reference value :  1.35181e-05
 Reference value :  1.35196e-05
 Reference value :  1.35208e-05
 Reference value :  1.35220e-05
 Reference value :  1.35234e-05
 Reference value :  1.35248e-05
 Reference value :  1.35263e-05
 Reference value :  1.35281e-05
 Reference value :  1.35298e-05
 Reference value :  1.35328e-05
 Reference value :  1.35362e-05
 Reference value :  1.35412e-05
 Reference value :  1.35483e-05
 Reference value :  1.35547e-05
 Reference value :  1.35602e-05
 Reference value :  1.35645e-05
 Reference value :  1.35688e-05
 Reference value :  1.35729e-05
 Reference value :  1.35780e-05
 Reference value :  1.35855e-05
 Reference value :  1.35956e-05
 Reference value :  1.36132e-05
 Reference value :  1.36398e-05
 Reference value :  1.36890e-05
 Reference value :  1.37469e-05
 Reference value :  1.37501e-05
 Reference value :  1.37501e-05
 Reference value :  1.37501e-05
 Reference value :  1.37502e-05
 Reference value :  1.37502e-05
 Reference value :  1.37502e-05
 Reference value :  1.37502e-05
 Reference value :  1.37502e-05
 Reference value :  1.37502e-05
 Reference value :  1.37502e-05
 Reference value :  1.37502e-05
 Reference value :  1.37503e-05
 Reference value :  1.37504e-05
 Reference value :  1.37506e-05
 Reference value :  1.37509e-05
 Reference value :  1.37515e-05
 Reference value :  1.37521e-05
 Reference value :  1.37528e-05
 Reference value :  1.37535e-05
 Reference value :  1.37545e-05
 Reference value :  1.37553e-05
 Reference value :  1.37561e-05
 Reference value :  1.37570e-05
 Reference value :  1.37579e-05
 Reference value :  1.37592e-05
 Reference value :  1.37610e-05
 Reference value :  1.37632e-05
 Reference value :  1.37663e-05
 Reference value :  1.37706e-05
 Reference value :  1.37792e-05
 Reference value :  1.37958e-05
 Reference value :  1.38244e-05
 Reference value :  1.38816e-05
 Reference value :  1.39461e-05
 Reference value :  1.40000e-05
 Reference value :  1.40000e-05
 Reference value :  1.40000e-05
 Reference value :  1.40001e-05
 Reference value :  1.40001e-05
 Reference value :  1.40001e-05
 Reference value :  1.40001e-05
 Reference value :  1.40001e-05
 Reference value :  1.40002e-05
 Reference value :  1.40002e-05
 Reference value :  1.40004e-05
 Reference value :  1.40005e-05
 Reference value :  1.40009e-05
 Reference value :  1.40014e-05
 Reference value :  1.40020e-05
 Reference value :  1.40025e-05
 Reference value :  1.40032e-05
 Reference value :  1.40039e-05
 Reference value :  1.40046e-05
 Reference value :  1.40054e-05
 Reference value :  1.40064e-05
 Reference value :  1.40076e-05
 Reference value :  1.40088e-05
 Reference value :  1.40100e-05
 Reference value :  1.40114e-05
 Reference value :  1.40128e-05
 Reference value :  1.40144e-05
 Reference value :  1.40158e-05
 Reference value :  1.40174e-05
 Reference value :  1.40192e-05
 Reference value :  1.40223e-05
 Reference value :  1.40271e-05
 Reference value :  1.40359e-05
 Reference value :  1.40527e-05
 Reference value :  1.40844e-05
 Reference value :  1.41479e-05
 Reference value :  1.42012e-05
 Reference value :  1.42501e-05
 Reference value :  1.42501e-05
 Reference value :  1.42501e-05
 Reference value :  1.42502e-05
 Reference value :  1.42502e-05
 Reference value :  1.42502e-05
 Reference value :  1.42502e-05
 Reference value :  1.42502e-05
 Reference value :  1.42502e-05
 Reference value :  1.42502e-05
 Reference value :  1.42502e-05
 Reference value :  1.42503e-05
 Reference value :  1.42504e-05
 Reference value :  1.42506e-05
 Reference value :  1.42509e-05
 Reference value :  1.42515e-05
 Reference value :  1.42521e-05
 Reference value :  1.42528e-05
 Reference value :  1.42535e-05
 Reference value :  1.42545e-05
 Reference value :  1.42553e-05
 Reference value :  1.42561e-05
 Reference value :  1.42569e-05
 Reference value :  1.42577e-05
 Reference value :  1.42587e-05
 Reference value :  1.42598e-05
 Reference value :  1.42610e-05
 Reference value :  1.42626e-05
 Reference value :  1.42646e-05
 Reference value :  1.42671e-05
 Reference value :  1.42704e-05
 Reference value :  1.42750e-05
 Reference value :  1.42844e-05
 Reference value :  1.43024e-05
 Reference value :  1.43384e-05
 Reference value :  1.44104e-05
 Reference value :  1.45000e-05
 Reference value :  1.45000e-05
 Reference value :  1.45000e-05
 Reference value :  1.45001e-05
 Reference value :  1.45001e-05
 Reference value :  1.45001e-05
 Reference value :  1.45001e-05
 Reference value :  1.45001e-05
 Reference value :  1.45002e-05
 Reference value :  1.45002e-05
 Reference value :  1.45004e-05
 Reference value :  1.45005e-05
 Reference value :  1.45009e-05
 Reference value :  1.45014e-05
 Reference value :  1.45020e-05
 Reference value :  1.45025e-05
 Reference value :  1.45032e-05
 Reference value :  1.45039e-05
 Reference value :  1.45046e-05
 Reference value :  1.45054e-05
 Reference value :  1.45063e-05
 Reference value :  1.45071e-05
 Reference value :  1.45078e-05
 Reference value :  1.45087e-05
 Reference value :  1.45096e-05
 Reference value :  1.45107e-05
 Reference value :  1.45122e-05
 Reference value :  1.45138e-05
 Reference value :  1.45154e-05
 Reference value :  1.45172e-05
 Reference value :  1.45188e-05
 Reference value :  1.45205e-05
 Reference value :  1.45218e-05
 Reference value :  1.45229e-05
 Reference value :  1.45242e-05
 Reference value :  1.45256e-05
 Reference value :  1.45269e-05
 Reference value :  1.45285e-05
 Reference value :  1.45307e-05
 Reference value :  1.45322e-05
 Reference value :  1.45338e-05
 Reference value :  1.45355e-05
 Reference value :  1.45376e-05
 Reference value :  1.45403e-05
 Reference value :  1.45445e-05
 Reference value :  1.45503e-05
 Reference value :  1.45596e-05
 Reference value :  1.45735e-05
 Reference value :  1.45925e-05
 Reference value :  1.46305e-05
 Reference value :  1.46708e-05
 Reference value :  1.47385e-05
 Reference value :  1.47501e-05
 Reference value :  1.47501e-05
 Reference value :  1.47501e-05
 Reference value :  1.47502e-05
 Reference value :  1.47502e-05
 Reference value :  1.47502e-05
 Reference value :  1.47502e-05
 Reference value :  1.47502e-05
 Reference value :  1.47502e-05
 Reference value :  1.47502e-05
 Reference value :  1.47502e-05
 Reference value :  1.47503e-05
 Reference value :  1.47504e-05
 Reference value :  1.47506e-05
 Reference value :  1.47509e-05
 Reference value :  1.47515e-05
 Reference value :  1.47521e-05
 Reference value :  1.47527e-05
 Reference value :  1.47535e-05
 Reference value :  1.47545e-05
 Reference value :  1.47552e-05
 Reference value :  1.47561e-05
 Reference value :  1.47570e-05
 Reference value :  1.47579e-05
 Reference value :  1.47592e-05
 Reference value :  1.47610e-05
 Reference value :  1.47632e-05
 Reference value :  1.47663e-05
 Reference value :  1.47706e-05
 Reference value :  1.47792e-05
 Reference value :  1.47957e-05
 Reference value :  1.48243e-05
 Reference value :  1.48815e-05
 Reference value :  1.49959e-05
 Reference value :  1.50000e-05
 Reference value :  1.50000e-05
 Reference value :  1.50000e-05
 Reference value :  1.50001e-05
 Reference value :  1.50001e-05
 Reference value :  1.50001e-05
 Reference value :  1.50001e-05
 Reference value :  1.50001e-05
 Reference value :  1.50002e-05
 Reference value :  1.50002e-05
 Reference value :  1.50004e-05
 Reference value :  1.50005e-05
 Reference value :  1.50009e-05
 Reference value :  1.50014e-05
 Reference value :  1.50020e-05
 Reference value :  1.50025e-05
 Reference value :  1.50032e-05
 Reference value :  1.50039e-05
 Reference value :  1.50046e-05
 Reference value :  1.50055e-05
 Reference value :  1.50063e-05
 Reference value :  1.50075e-05
 Reference value :  1.50087e-05
 Reference value :  1.50100e-05
 Reference value :  1.50115e-05
 Reference value :  1.50129e-05
 Reference value :  1.50143e-05
 Reference value :  1.50158e-05
 Reference value :  1.50174e-05
 Reference value :  1.50193e-05
 Reference value :  1.50226e-05
 Reference value :  1.50275e-05
 Reference value :  1.50372e-05
 Reference value :  1.50553e-05
 Reference value :  1.50896e-05
 Reference value :  1.51582e-05
 Reference value :  1.52501e-05
 Reference value :  1.52501e-05
 Reference value :  1.52501e-05
 Reference value :  1.52502e-05
 Reference value :  1.52502e-05
 Reference value :  1.52502e-05
 Reference value :  1.52502e-05
 Reference value :  1.52502e-05
 Reference value :  1.52502e-05
 Reference value :  1.52502e-05
 Reference value :  1.52502e-05
 Reference value :  1.52503e-05
 Reference value :  1.52504e-05
 Reference value :  1.52506e-05
 Reference value :  1.52509e-05
 Reference value :  1.52515e-05
 Reference value :  1.52521e-05
 Reference value :  1.52527e-05
 Reference value :  1.52535e-05
 Reference value :  1.52545e-05
 Reference value :  1.52552e-05
 Reference value :  1.52561e-05
 Reference value :  1.52568e-05
 Reference value :  1.52577e-05
 Reference value :  1.52587e-05
 Reference value :  1.52598e-05
 Reference value :  1.52620e-05
 Reference value :  1.52644e-05
 Reference value :  1.52683e-05
 Reference value :  1.52733e-05
 Reference value :  1.52831e-05
 Reference value :  1.53029e-05
 Reference value :  1.53409e-05
 Reference value :  1.54168e-05
 Reference value :  1.55000e-05
 Reference value :  1.55012e-05
 Reference value :  1.55036e-05
 Reference value :  1.55048e-05
 Reference value :  1.55060e-05
 Reference value :  1.55070e-05
 Reference value :  1.55081e-05
 Reference value :  1.55090e-05
 Reference value :  1.55100e-05
 Reference value :  1.55113e-05
 Reference value :  1.55127e-05
 Reference value :  1.55152e-05
 Reference value :  1.55183e-05
 Reference value :  1.55205e-05
 Reference value :  1.55229e-05
 Reference value :  1.55248e-05
 Reference value :  1.55268e-05
 Reference value :  1.55286e-05
 Reference value :  1.55309e-05
 Reference value :  1.55331e-05
 Reference value :  1.55360e-05
 Reference value :  1.55399e-05
 Reference value :  1.55452e-05
 Reference value :  1.55534e-05
 Reference value :  1.55653e-05
 Reference value :  1.55847e-05
 Reference value :  1.56149e-05
 Reference value :  1.56635e-05
 Reference value :  1.57501e-05
 Reference value :  1.57501e-05
 Reference value :  1.57501e-05
 Reference value :  1.57502e-05
 Reference value :  1.57502e-05
 Reference value :  1.57502e-05
 Reference value :  1.57502e-05
 Reference value :  1.57502e-05
 Reference value :  1.57502e-05
 Reference value :  1.57502e-05
 Reference value :  1.57502e-05
 Reference value :  1.57503e-05
 Reference value :  1.57504e-05
 Reference value :  1.57506e-05
 Reference value :  1.57509e-05
[...]
 Reference value :  2.67750e-04
 Reference value :  2.67750e-04
 Reference value :  2.67750e-04
 Reference value :  2.67751e-04
 Reference value :  2.67751e-04
 Reference value :  2.67751e-04
 Reference value :  2.67752e-04
 Reference value :  2.67753e-04
 Reference value :  2.67753e-04
 Reference value :  2.67754e-04
 Reference value :  2.67755e-04
 Reference value :  2.67756e-04
 Reference value :  2.67757e-04
 Reference value :  2.67758e-04
 Reference value :  2.67759e-04
 Reference value :  2.67761e-04
 Reference value :  2.67763e-04
 Reference value :  2.67766e-04
 Reference value :  2.67771e-04
 Reference value :  2.67779e-04
 Reference value :  2.67796e-04
 Reference value :  2.67825e-04
 Reference value :  2.67882e-04
 Reference value :  2.67997e-04
 Reference value :  2.68000e-04
 Reference value :  2.68000e-04
 Reference value :  2.68000e-04
 Reference value :  2.68000e-04
 Reference value :  2.68000e-04
 Reference value :  2.68000e-04
 Reference value :  2.68000e-04
 Reference value :  2.68000e-04
 Reference value :  2.68000e-04
 Reference value :  2.68000e-04
 Reference value :  2.68000e-04
 Reference value :  2.68001e-04
 Reference value :  2.68001e-04
 Reference value :  2.68001e-04
 Reference value :  2.68002e-04
 Reference value :  2.68003e-04
 Reference value :  2.68003e-04
 Reference value :  2.68004e-04
 Reference value :  2.68005e-04
 Reference value :  2.68005e-04
 Reference value :  2.68006e-04
 Reference value :  2.68008e-04
 Reference value :  2.68009e-04
 Reference value :  2.68010e-04
 Reference value :  2.68011e-04
 Reference value :  2.68013e-04
 Reference value :  2.68014e-04
 Reference value :  2.68016e-04
 Reference value :  2.68017e-04
 Reference value :  2.68019e-04
 Reference value :  2.68022e-04
 Reference value :  2.68027e-04
 Reference value :  2.68037e-04
 Reference value :  2.68056e-04
 Reference value :  2.68092e-04
 Reference value :  2.68165e-04
 Reference value :  2.68250e-04
 Reference value :  2.68250e-04
 Reference value :  2.68250e-04
 Reference value :  2.68250e-04
 Reference value :  2.68250e-04
 Reference value :  2.68250e-04
 Reference value :  2.68250e-04
 Reference value :  2.68250e-04
 Reference value :  2.68250e-04
 Reference value :  2.68250e-04
 Reference value :  2.68250e-04
 Reference value :  2.68250e-04
 Reference value :  2.68250e-04
 Reference value :  2.68251e-04
 Reference value :  2.68251e-04
 Reference value :  2.68251e-04
 Reference value :  2.68252e-04
 Reference value :  2.68253e-04
 Reference value :  2.68253e-04
 Reference value :  2.68254e-04
 Reference value :  2.68255e-04
 Reference value :  2.68256e-04
 Reference value :  2.68257e-04
 Reference value :  2.68258e-04
 Reference value :  2.68259e-04
 Reference value :  2.68260e-04
 Reference value :  2.68262e-04
 Reference value :  2.68264e-04
 Reference value :  2.68268e-04
 Reference value :  2.68273e-04
 Reference value :  2.68283e-04
 Reference value :  2.68303e-04
 Reference value :  2.68340e-04
 Reference value :  2.68416e-04
 Reference value :  2.68500e-04
 Reference value :  2.68500e-04
 Reference value :  2.68500e-04
 Reference value :  2.68500e-04
 Reference value :  2.68500e-04
 Reference value :  2.68500e-04
 Reference value :  2.68500e-04
 Reference value :  2.68500e-04
 Reference value :  2.68500e-04
 Reference value :  2.68500e-04
 Reference value :  2.68500e-04
 Reference value :  2.68501e-04
 Reference value :  2.68501e-04
 Reference value :  2.68501e-04
 Reference value :  2.68502e-04
 Reference value :  2.68503e-04
 Reference value :  2.68503e-04
 Reference value :  2.68504e-04
 Reference value :  2.68505e-04
 Reference value :  2.68505e-04
 Reference value :  2.68506e-04
 Reference value :  2.68507e-04
 Reference value :  2.68508e-04
 Reference value :  2.68509e-04
 Reference value :  2.68510e-04
 Reference value :  2.68511e-04
 Reference value :  2.68513e-04
 Reference value :  2.68515e-04
 Reference value :  2.68518e-04
 Reference value :  2.68520e-04
 Reference value :  2.68522e-04
 Reference value :  2.68523e-04
 Reference value :  2.68525e-04
 Reference value :  2.68527e-04
 Reference value :  2.68529e-04
 Reference value :  2.68531e-04
 Reference value :  2.68533e-04
 Reference value :  2.68537e-04
 Reference value :  2.68543e-04
 Reference value :  2.68553e-04
 Reference value :  2.68566e-04
 Reference value :  2.68578e-04
 Reference value :  2.68588e-04
 Reference value :  2.68597e-04
 Reference value :  2.68605e-04
 Reference value :  2.68614e-04
 Reference value :  2.68625e-04
 Reference value :  2.68645e-04
 Reference value :  2.68686e-04
 Reference value :  2.68736e-04
 Reference value :  2.68750e-04
 Reference value :  2.68750e-04
 Reference value :  2.68750e-04
 Reference value :  2.68750e-04
 Reference value :  2.68750e-04
 Reference value :  2.68750e-04
 Reference value :  2.68750e-04
 Reference value :  2.68750e-04
 Reference value :  2.68750e-04
 Reference value :  2.68750e-04
 Reference value :  2.68750e-04
 Reference value :  2.68750e-04
 Reference value :  2.68750e-04
 Reference value :  2.68751e-04
 Reference value :  2.68751e-04
 Reference value :  2.68751e-04
 Reference value :  2.68752e-04
 Reference value :  2.68753e-04
 Reference value :  2.68753e-04
 Reference value :  2.68754e-04
 Reference value :  2.68755e-04
 Reference value :  2.68756e-04
 Reference value :  2.68757e-04
 Reference value :  2.68758e-04
 Reference value :  2.68759e-04
 Reference value :  2.68761e-04
 Reference value :  2.68763e-04
 Reference value :  2.68766e-04
 Reference value :  2.68771e-04
 Reference value :  2.68779e-04
 Reference value :  2.68796e-04
 Reference value :  2.68824e-04
 Reference value :  2.68881e-04
 Reference value :  2.68994e-04
 Reference value :  2.69000e-04
 Reference value :  2.69000e-04
 Reference value :  2.69000e-04
 Reference value :  2.69000e-04
 Reference value :  2.69000e-04
 Reference value :  2.69000e-04
 Reference value :  2.69000e-04
 Reference value :  2.69000e-04
 Reference value :  2.69000e-04
 Reference value :  2.69000e-04
 Reference value :  2.69000e-04
 Reference value :  2.69001e-04
 Reference value :  2.69001e-04
 Reference value :  2.69001e-04
 Reference value :  2.69002e-04
 Reference value :  2.69003e-04
 Reference value :  2.69003e-04
 Reference value :  2.69004e-04
 Reference value :  2.69005e-04
 Reference value :  2.69005e-04
 Reference value :  2.69006e-04
 Reference value :  2.69008e-04
 Reference value :  2.69009e-04
 Reference value :  2.69010e-04
 Reference value :  2.69011e-04
 Reference value :  2.69013e-04
 Reference value :  2.69014e-04
 Reference value :  2.69015e-04
 Reference value :  2.69017e-04
 Reference value :  2.69019e-04
 Reference value :  2.69022e-04
 Reference value :  2.69027e-04
 Reference value :  2.69037e-04
 Reference value :  2.69057e-04
 Reference value :  2.69097e-04
 Reference value :  2.69176e-04
 Reference value :  2.69250e-04
 Reference value :  2.69250e-04
 Reference value :  2.69250e-04
 Reference value :  2.69250e-04
 Reference value :  2.69250e-04
 Reference value :  2.69250e-04
 Reference value :  2.69250e-04
 Reference value :  2.69250e-04
 Reference value :  2.69250e-04
 Reference value :  2.69250e-04
 Reference value :  2.69250e-04
 Reference value :  2.69250e-04
 Reference value :  2.69250e-04
 Reference value :  2.69251e-04
 Reference value :  2.69251e-04
 Reference value :  2.69251e-04
 Reference value :  2.69252e-04
 Reference value :  2.69253e-04
 Reference value :  2.69253e-04
 Reference value :  2.69254e-04
 Reference value :  2.69255e-04
 Reference value :  2.69256e-04
 Reference value :  2.69257e-04
 Reference value :  2.69258e-04
 Reference value :  2.69259e-04
 Reference value :  2.69260e-04
 Reference value :  2.69262e-04
 Reference value :  2.69264e-04
 Reference value :  2.69268e-04
 Reference value :  2.69273e-04
 Reference value :  2.69283e-04
 Reference value :  2.69303e-04
 Reference value :  2.69341e-04
 Reference value :  2.69417e-04
 Reference value :  2.69500e-04
 Reference value :  2.69500e-04
 Reference value :  2.69500e-04
 Reference value :  2.69500e-04
 Reference value :  2.69500e-04
 Reference value :  2.69500e-04
 Reference value :  2.69500e-04
 Reference value :  2.69500e-04
 Reference value :  2.69500e-04
 Reference value :  2.69500e-04
 Reference value :  2.69500e-04
 Reference value :  2.69501e-04
 Reference value :  2.69501e-04
 Reference value :  2.69501e-04
 Reference value :  2.69502e-04
 Reference value :  2.69503e-04
 Reference value :  2.69503e-04
 Reference value :  2.69504e-04
 Reference value :  2.69505e-04
 Reference value :  2.69505e-04
 Reference value :  2.69506e-04
 Reference value :  2.69507e-04
 Reference value :  2.69508e-04
 Reference value :  2.69509e-04
 Reference value :  2.69510e-04
 Reference value :  2.69511e-04
 Reference value :  2.69513e-04
 Reference value :  2.69515e-04
 Reference value :  2.69518e-04
 Reference value :  2.69520e-04
 Reference value :  2.69522e-04
 Reference value :  2.69524e-04
 Reference value :  2.69525e-04
 Reference value :  2.69527e-04
 Reference value :  2.69529e-04
 Reference value :  2.69531e-04
 Reference value :  2.69534e-04
 Reference value :  2.69538e-04
 Reference value :  2.69543e-04
 Reference value :  2.69552e-04
 Reference value :  2.69562e-04
 Reference value :  2.69573e-04
 Reference value :  2.69583e-04
 Reference value :  2.69593e-04
 Reference value :  2.69605e-04
 Reference value :  2.69616e-04
 Reference value :  2.69634e-04
 Reference value :  2.69653e-04
 Reference value :  2.69690e-04
 Reference value :  2.69750e-04
 Reference value :  2.69750e-04
 Reference value :  2.69750e-04
 Reference value :  2.69750e-04
 Reference value :  2.69750e-04
 Reference value :  2.69750e-04
 Reference value :  2.69750e-04
 Reference value :  2.69750e-04
 Reference value :  2.69750e-04
 Reference value :  2.69750e-04
 Reference value :  2.69750e-04
 Reference value :  2.69750e-04
 Reference value :  2.69750e-04
 Reference value :  2.69751e-04
 Reference value :  2.69751e-04
 Reference value :  2.69751e-04
 Reference value :  2.69752e-04
 Reference value :  2.69753e-04
 Reference value :  2.69753e-04
 Reference value :  2.69755e-04
 Reference value :  2.69755e-04
 Reference value :  2.69756e-04
 Reference value :  2.69757e-04
 Reference value :  2.69758e-04
 Reference value :  2.69759e-04
 Reference value :  2.69761e-04
 Reference value :  2.69763e-04
 Reference value :  2.69766e-04
 Reference value :  2.69771e-04
 Reference value :  2.69779e-04
 Reference value :  2.69796e-04
 Reference value :  2.69825e-04
 Reference value :  2.69882e-04
 Reference value :  2.69987e-04
 Reference value :  2.70000e-04
 Reference value :  2.70000e-04
 Reference value :  2.70000e-04
 Reference value :  2.70000e-04
 Reference value :  2.70000e-04
 Reference value :  2.70000e-04
 Reference value :  2.70000e-04
 Reference value :  2.70000e-04
 Reference value :  2.70000e-04
 Reference value :  2.70000e-04
 Reference value :  2.70000e-04
 Reference value :  2.70001e-04
 Reference value :  2.70001e-04
 Reference value :  2.70001e-04
 Reference value :  2.70002e-04
 Reference value :  2.70003e-04
 Reference value :  2.70003e-04
 Reference value :  2.70004e-04
 Reference value :  2.70005e-04
 Reference value :  2.70005e-04
 Reference value :  2.70006e-04
 Reference value :  2.70008e-04
 Reference value :  2.70009e-04
 Reference value :  2.70010e-04
 Reference value :  2.70011e-04
 Reference value :  2.70013e-04
 Reference value :  2.70014e-04
 Reference value :  2.70016e-04
 Reference value :  2.70017e-04
 Reference value :  2.70019e-04
 Reference value :  2.70023e-04
 Reference value :  2.70028e-04
 Reference value :  2.70037e-04
 Reference value :  2.70055e-04
 Reference value :  2.70089e-04
 Reference value :  2.70158e-04
 Reference value :  2.70250e-04
 Reference value :  2.70250e-04
 Reference value :  2.70250e-04
 Reference value :  2.70250e-04
 Reference value :  2.70250e-04
 Reference value :  2.70250e-04
 Reference value :  2.70250e-04
 Reference value :  2.70250e-04
 Reference value :  2.70250e-04
 Reference value :  2.70250e-04
 Reference value :  2.70250e-04
 Reference value :  2.70250e-04
 Reference value :  2.70250e-04
 Reference value :  2.70251e-04
 Reference value :  2.70251e-04
 Reference value :  2.70251e-04
 Reference value :  2.70252e-04
 Reference value :  2.70253e-04
 Reference value :  2.70253e-04
 Reference value :  2.70254e-04
 Reference value :  2.70255e-04
 Reference value :  2.70256e-04
 Reference value :  2.70257e-04
 Reference value :  2.70258e-04
 Reference value :  2.70259e-04
 Reference value :  2.70260e-04
 Reference value :  2.70262e-04
 Reference value :  2.70264e-04
 Reference value :  2.70268e-04
 Reference value :  2.70273e-04
 Reference value :  2.70283e-04
 Reference value :  2.70303e-04
 Reference value :  2.70341e-04
 Reference value :  2.70417e-04
 Reference value :  2.70500e-04
 Reference value :  2.70500e-04
 Reference value :  2.70500e-04
 Reference value :  2.70500e-04
 Reference value :  2.70500e-04
 Reference value :  2.70500e-04
 Reference value :  2.70500e-04
 Reference value :  2.70500e-04
 Reference value :  2.70500e-04
 Reference value :  2.70500e-04
 Reference value :  2.70500e-04
 Reference value :  2.70501e-04
 Reference value :  2.70501e-04
 Reference value :  2.70501e-04
 Reference value :  2.70502e-04
 Reference value :  2.70503e-04
 Reference value :  2.70503e-04
 Reference value :  2.70504e-04
 Reference value :  2.70505e-04
 Reference value :  2.70505e-04
 Reference value :  2.70506e-04
 Reference value :  2.70507e-04
 Reference value :  2.70508e-04
 Reference value :  2.70509e-04
 Reference value :  2.70510e-04
 Reference value :  2.70511e-04
 Reference value :  2.70513e-04
 Reference value :  2.70515e-04
 Reference value :  2.70518e-04
 Reference value :  2.70520e-04
 Reference value :  2.70522e-04
 Reference value :  2.70524e-04
 Reference value :  2.70526e-04
 Reference value :  2.70527e-04
 Reference value :  2.70529e-04
 Reference value :  2.70532e-04
 Reference value :  2.70534e-04
 Reference value :  2.70538e-04
 Reference value :  2.70543e-04
 Reference value :  2.70549e-04
 Reference value :  2.70557e-04
 Reference value :  2.70572e-04
 Reference value :  2.70595e-04
 Reference value :  2.70633e-04
 Reference value :  2.70694e-04
 Reference value :  2.70750e-04
 Reference value :  2.70750e-04
 Reference value :  2.70750e-04
 Reference value :  2.70750e-04
 Reference value :  2.70750e-04
 Reference value :  2.70750e-04
 Reference value :  2.70750e-04
 Reference value :  2.70750e-04
 Reference value :  2.70750e-04
 Reference value :  2.70750e-04
 Reference value :  2.70750e-04
 Reference value :  2.70750e-04
 Reference value :  2.70750e-04
 Reference value :  2.70751e-04
 Reference value :  2.70751e-04
 Reference value :  2.70751e-04
 Reference value :  2.70752e-04
 Reference value :  2.70753e-04
 Reference value :  2.70753e-04
 Reference value :  2.70755e-04
 Reference value :  2.70755e-04
 Reference value :  2.70756e-04
 Reference value :  2.70757e-04
 Reference value :  2.70758e-04
 Reference value :  2.70759e-04
 Reference value :  2.70761e-04
 Reference value :  2.70763e-04
 Reference value :  2.70766e-04
 Reference value :  2.70771e-04
 Reference value :  2.70779e-04
 Reference value :  2.70796e-04
 Reference value :  2.70825e-04
 Reference value :  2.70882e-04
 Reference value :  2.70989e-04
 Reference value :  2.71000e-04
 Reference value :  2.71000e-04
 Reference value :  2.71000e-04
 Reference value :  2.71000e-04
 Reference value :  2.71000e-04
 Reference value :  2.71000e-04
 Reference value :  2.71000e-04
 Reference value :  2.71000e-04
 Reference value :  2.71000e-04
 Reference value :  2.71000e-04
 Reference value :  2.71000e-04
 Reference value :  2.71001e-04
 Reference value :  2.71001e-04
 Reference value :  2.71001e-04
 Reference value :  2.71002e-04
 Reference value :  2.71003e-04
 Reference value :  2.71003e-04
 Reference value :  2.71004e-04
 Reference value :  2.71005e-04
 Reference value :  2.71005e-04
 Reference value :  2.71006e-04
 Reference value :  2.71008e-04
 Reference value :  2.71009e-04
 Reference value :  2.71010e-04
 Reference value :  2.71012e-04
 Reference value :  2.71013e-04
 Reference value :  2.71014e-04
 Reference value :  2.71016e-04
 Reference value :  2.71017e-04
 Reference value :  2.71019e-04
 Reference value :  2.71023e-04
 Reference value :  2.71028e-04
 Reference value :  2.71038e-04
 Reference value :  2.71058e-04
 Reference value :  2.71097e-04
 Reference value :  2.71177e-04
 Reference value :  2.71250e-04
 Reference value :  2.71250e-04
 Reference value :  2.71250e-04
 Reference value :  2.71250e-04
 Reference value :  2.71250e-04
 Reference value :  2.71250e-04
 Reference value :  2.71250e-04
 Reference value :  2.71250e-04
 Reference value :  2.71250e-04
 Reference value :  2.71250e-04
 Reference value :  2.71250e-04
 Reference value :  2.71250e-04
 Reference value :  2.71250e-04
 Reference value :  2.71251e-04
 Reference value :  2.71251e-04
 Reference value :  2.71251e-04
 Reference value :  2.71252e-04
 Reference value :  2.71253e-04
 Reference value :  2.71253e-04
 Reference value :  2.71254e-04
 Reference value :  2.71255e-04
 Reference value :  2.71256e-04
 Reference value :  2.71257e-04
 Reference value :  2.71258e-04
 Reference value :  2.71259e-04
 Reference value :  2.71260e-04
 Reference value :  2.71262e-04
 Reference value :  2.71264e-04
 Reference value :  2.71268e-04
 Reference value :  2.71273e-04
 Reference value :  2.71283e-04
 Reference value :  2.71303e-04
 Reference value :  2.71343e-04
 Reference value :  2.71422e-04
 Reference value :  2.71500e-04
 Reference value :  2.71500e-04
 Reference value :  2.71500e-04
 Reference value :  2.71500e-04
 Reference value :  2.71500e-04
 Reference value :  2.71500e-04
 Reference value :  2.71500e-04
 Reference value :  2.71500e-04
 Reference value :  2.71500e-04
 Reference value :  2.71500e-04
 Reference value :  2.71500e-04
 Reference value :  2.71501e-04
 Reference value :  2.71501e-04
 Reference value :  2.71501e-04
 Reference value :  2.71502e-04
 Reference value :  2.71503e-04
 Reference value :  2.71503e-04
 Reference value :  2.71504e-04
 Reference value :  2.71505e-04
 Reference value :  2.71505e-04
 Reference value :  2.71506e-04
 Reference value :  2.71507e-04
 Reference value :  2.71508e-04
 Reference value :  2.71509e-04
 Reference value :  2.71510e-04
 Reference value :  2.71511e-04
 Reference value :  2.71513e-04
 Reference value :  2.71516e-04
 Reference value :  2.71519e-04
 Reference value :  2.71521e-04
 Reference value :  2.71524e-04
 Reference value :  2.71527e-04
 Reference value :  2.71530e-04
 Reference value :  2.71536e-04
 Reference value :  2.71543e-04
 Reference value :  2.71554e-04
 Reference value :  2.71571e-04
 Reference value :  2.71599e-04
 Reference value :  2.71648e-04
 Reference value :  2.71728e-04
 Reference value :  2.71750e-04
 Reference value :  2.71750e-04
 Reference value :  2.71750e-04
 Reference value :  2.71750e-04
 Reference value :  2.71750e-04
 Reference value :  2.71750e-04
 Reference value :  2.71750e-04
 Reference value :  2.71750e-04
 Reference value :  2.71750e-04
 Reference value :  2.71750e-04
 Reference value :  2.71750e-04
 Reference value :  2.71750e-04
 Reference value :  2.71750e-04
 Reference value :  2.71751e-04
 Reference value :  2.71751e-04
 Reference value :  2.71751e-04
 Reference value :  2.71752e-04
 Reference value :  2.71753e-04
 Reference value :  2.71754e-04
 Reference value :  2.71755e-04
 Reference value :  2.71756e-04
 Reference value :  2.71757e-04
 Reference value :  2.71758e-04
 Reference value :  2.71760e-04
 Reference value :  2.71762e-04
 Reference value :  2.71765e-04
 Reference value :  2.71769e-04
 Reference value :  2.71776e-04
 Reference value :  2.71789e-04
 Reference value :  2.71815e-04
 Reference value :  2.71866e-04
 Reference value :  2.71970e-04
 Reference value :  2.72000e-04
No. of Data Rows : 42167
ngspice-44 done
