
Note: Compatibility modes selected: hs a


Circuit: ** sch_path: /home/ece/cace/sar-adc-using-sky130-pdk/runs/run_2025-10-12_03-43-23/parameters/dnl/run_0/sar_output_dnl.sch

option SCALE: Scale is set to 1e-06 for instance and model parameters
option SCALE: Scale is set to 1e-06 for instance and model parameters
option SCALE: Scale is set to 1e-06 for instance and model parameters
option SCALE: Scale is set to 1e-06 for instance and model parameters
Doing analysis at TEMP = -40.000000 and TNOM = 27.000000

Using KLU as Direct Linear Solver
Operating point simulation skipped by 'uic',
  now using transient initial conditions.
 Reference value :  1.00000e-12
 Reference value :  1.02772e-12
 Reference value :  1.08316e-12
 Reference value :  1.19404e-12
 Reference value :  1.33848e-12
 Reference value :  1.62736e-12
 Reference value :  2.20511e-12
 Reference value :  3.05296e-12
 Reference value :  3.95945e-12
 Reference value :  5.17648e-12
 Reference value :  6.90650e-12
 Reference value :  1.00691e-11
 Reference value :  1.35880e-11
 Reference value :  2.04958e-11
 Reference value :  2.72064e-11
 Reference value :  3.62919e-11
 Reference value :  4.74349e-11
 Reference value :  6.32498e-11
 Reference value :  8.37026e-11
 Reference value :  1.00000e-10
 Reference value :  1.01337e-10
 Reference value :  1.04010e-10
 Reference value :  1.09358e-10
 Reference value :  1.20052e-10
 Reference value :  1.41442e-10
 Reference value :  1.84220e-10
 Reference value :  2.69776e-10
 Reference value :  4.21335e-10
 Reference value :  5.93459e-10
 Reference value :  8.67783e-10
 Reference value :  1.25375e-09
 Reference value :  1.63925e-09
 Reference value :  2.23706e-09
 Reference value :  2.86271e-09
 Reference value :  3.76064e-09
 Reference value :  4.57564e-09
 Reference value :  5.33411e-09
 Reference value :  6.17015e-09
 Reference value :  7.05787e-09
 Reference value :  8.19389e-09
 Reference value :  9.39009e-09
 Reference value :  1.05552e-08
 Reference value :  1.13828e-08
 Reference value :  1.21429e-08
 Reference value :  1.29822e-08
 Reference value :  1.38821e-08
 Reference value :  1.54703e-08
 Reference value :  1.75028e-08
 Reference value :  2.10492e-08
 Reference value :  2.43701e-08
 Reference value :  2.75965e-08
 Reference value :  3.06632e-08
 Reference value :  3.42424e-08
 Reference value :  3.75523e-08
 Reference value :  4.23794e-08
 Reference value :  4.71685e-08
 Reference value :  5.42196e-08
 Reference value :  6.48222e-08
 Reference value :  8.24224e-08
 Reference value :  1.14659e-07
 Reference value :  1.66077e-07
 Reference value :  2.50100e-07
 Reference value :  2.50110e-07
 Reference value :  2.50130e-07
 Reference value :  2.50170e-07
 Reference value :  2.50200e-07
 Reference value :  2.50201e-07
 Reference value :  2.50202e-07
 Reference value :  2.50204e-07
 Reference value :  2.50208e-07
 Reference value :  2.50218e-07
 Reference value :  2.50236e-07
 Reference value :  2.50272e-07
 Reference value :  2.50344e-07
 Reference value :  2.50442e-07
 Reference value :  2.50590e-07
 Reference value :  2.50768e-07
 Reference value :  2.51116e-07
 Reference value :  2.51468e-07
 Reference value :  2.51962e-07
 Reference value :  2.52480e-07
 Reference value :  2.53132e-07
 Reference value :  2.53954e-07
 Reference value :  2.54691e-07
 Reference value :  2.55501e-07
 Reference value :  2.56244e-07
 Reference value :  2.57086e-07
 Reference value :  2.57927e-07
 Reference value :  2.59154e-07
 Reference value :  2.61108e-07
 Reference value :  2.63028e-07
 Reference value :  2.66394e-07
 Reference value :  2.71051e-07
 Reference value :  2.80364e-07
 Reference value :  2.98990e-07
 Reference value :  3.36243e-07
 Reference value :  4.10748e-07
 Reference value :  5.00000e-07
 Reference value :  5.00010e-07
 Reference value :  5.00030e-07
 Reference value :  5.00070e-07
 Reference value :  5.00100e-07
 Reference value :  5.00104e-07
 Reference value :  5.00113e-07
 Reference value :  5.00130e-07
 Reference value :  5.00165e-07
 Reference value :  5.00235e-07
 Reference value :  5.00364e-07
 Reference value :  5.00578e-07
 Reference value :  5.01005e-07
 Reference value :  5.01504e-07
 Reference value :  5.02034e-07
 Reference value :  5.02545e-07
 Reference value :  5.03150e-07
 Reference value :  5.03767e-07
 Reference value :  5.04517e-07
 Reference value :  5.05330e-07
 Reference value :  5.06115e-07
 Reference value :  5.07274e-07
 Reference value :  5.08465e-07
 Reference value :  5.10185e-07
 Reference value :  5.12332e-07
 Reference value :  5.13883e-07
 Reference value :  5.15604e-07
 Reference value :  5.17412e-07
 Reference value :  5.19526e-07
 Reference value :  5.21867e-07
 Reference value :  5.24198e-07
 Reference value :  5.28681e-07
 Reference value :  5.34780e-07
 Reference value :  5.43276e-07
 Reference value :  5.60268e-07
 Reference value :  5.85606e-07
 Reference value :  6.36284e-07
 Reference value :  7.26030e-07
 Reference value :  7.50100e-07
 Reference value :  7.50110e-07
 Reference value :  7.50130e-07
 Reference value :  7.50170e-07
 Reference value :  7.50200e-07
 Reference value :  7.50201e-07
 Reference value :  7.50202e-07
 Reference value :  7.50206e-07
 Reference value :  7.50212e-07
 Reference value :  7.50225e-07
 Reference value :  7.50251e-07
 Reference value :  7.50303e-07
 Reference value :  7.50407e-07
 Reference value :  7.50615e-07
 Reference value :  7.50972e-07
 Reference value :  7.51347e-07
 Reference value :  7.51825e-07
 Reference value :  7.52356e-07
 Reference value :  7.53081e-07
 Reference value :  7.53921e-07
 Reference value :  7.54680e-07
 Reference value :  7.55561e-07
 Reference value :  7.56327e-07
 Reference value :  7.57129e-07
 Reference value :  7.58007e-07
 Reference value :  7.59005e-07
 Reference value :  7.60854e-07
 Reference value :  7.63367e-07
 Reference value :  7.66630e-07
 Reference value :  7.72914e-07
 Reference value :  7.85483e-07
 Reference value :  8.07299e-07
 Reference value :  8.50932e-07
 Reference value :  9.38199e-07
 Reference value :  1.00000e-06
 Reference value :  1.00001e-06
 Reference value :  1.00003e-06
 Reference value :  1.00007e-06
 Reference value :  1.00010e-06
 Reference value :  1.00010e-06
 Reference value :  1.00011e-06
 Reference value :  1.00013e-06
 Reference value :  1.00016e-06
 Reference value :  1.00023e-06
 Reference value :  1.00036e-06
 Reference value :  1.00058e-06
 Reference value :  1.00100e-06
 Reference value :  1.00150e-06
 Reference value :  1.00203e-06
 Reference value :  1.00253e-06
 Reference value :  1.00314e-06
 Reference value :  1.00370e-06
 Reference value :  1.00448e-06
 Reference value :  1.00522e-06
 Reference value :  1.00588e-06
 Reference value :  1.00673e-06
 Reference value :  1.00756e-06
 Reference value :  1.00837e-06
 Reference value :  1.00920e-06
 Reference value :  1.01029e-06
 Reference value :  1.01170e-06
 Reference value :  1.01391e-06
 Reference value :  1.01598e-06
 Reference value :  1.01779e-06
 Reference value :  1.01928e-06
 Reference value :  1.02036e-06
 Reference value :  1.02151e-06
 Reference value :  1.02257e-06
 Reference value :  1.02371e-06
 Reference value :  1.02497e-06
 Reference value :  1.02689e-06
 Reference value :  1.02870e-06
 Reference value :  1.03222e-06
 Reference value :  1.03738e-06
 Reference value :  1.04234e-06
 Reference value :  1.04599e-06
 Reference value :  1.04991e-06
 Reference value :  1.05224e-06
 Reference value :  1.05472e-06
 Reference value :  1.05734e-06
 Reference value :  1.06084e-06
 Reference value :  1.06328e-06
 Reference value :  1.06601e-06
 Reference value :  1.06924e-06
 Reference value :  1.07268e-06
 Reference value :  1.07812e-06
 Reference value :  1.08505e-06
 Reference value :  1.09269e-06
 Reference value :  1.10059e-06
 Reference value :  1.10869e-06
 Reference value :  1.12491e-06
 Reference value :  1.14772e-06
 Reference value :  1.18678e-06
 Reference value :  1.25010e-06
 Reference value :  1.25011e-06
 Reference value :  1.25013e-06
 Reference value :  1.25017e-06
 Reference value :  1.25020e-06
 Reference value :  1.25020e-06
 Reference value :  1.25020e-06
 Reference value :  1.25021e-06
 Reference value :  1.25021e-06
 Reference value :  1.25023e-06
 Reference value :  1.25025e-06
 Reference value :  1.25031e-06
 Reference value :  1.25041e-06
 Reference value :  1.25062e-06
 Reference value :  1.25098e-06
 Reference value :  1.25135e-06
 Reference value :  1.25182e-06
 Reference value :  1.25236e-06
 Reference value :  1.25304e-06
 Reference value :  1.25389e-06
 Reference value :  1.25462e-06
 Reference value :  1.25544e-06
 Reference value :  1.25622e-06
 Reference value :  1.25703e-06
 Reference value :  1.25827e-06
 Reference value :  1.25955e-06
 Reference value :  1.26154e-06
 Reference value :  1.26421e-06
 Reference value :  1.26784e-06
 Reference value :  1.27509e-06
 Reference value :  1.28857e-06
 Reference value :  1.31183e-06
 Reference value :  1.35769e-06
 Reference value :  1.44942e-06
 Reference value :  1.50000e-06
 Reference value :  1.50001e-06
 Reference value :  1.50003e-06
 Reference value :  1.50007e-06
 Reference value :  1.50010e-06
 Reference value :  1.50010e-06
 Reference value :  1.50011e-06
 Reference value :  1.50013e-06
 Reference value :  1.50016e-06
 Reference value :  1.50023e-06
 Reference value :  1.50036e-06
 Reference value :  1.50056e-06
 Reference value :  1.50096e-06
 Reference value :  1.50146e-06
 Reference value :  1.50198e-06
 Reference value :  1.50245e-06
 Reference value :  1.50303e-06
 Reference value :  1.50356e-06
 Reference value :  1.50423e-06
 Reference value :  1.50495e-06
 Reference value :  1.50576e-06
 Reference value :  1.50682e-06
 Reference value :  1.50790e-06
 Reference value :  1.50936e-06
 Reference value :  1.51039e-06
 Reference value :  1.51155e-06
 Reference value :  1.51277e-06
 Reference value :  1.51424e-06
 Reference value :  1.51573e-06
 Reference value :  1.51740e-06
 Reference value :  1.52071e-06
 Reference value :  1.52524e-06
 Reference value :  1.53429e-06
 Reference value :  1.55121e-06
 Reference value :  1.58135e-06
 Reference value :  1.64162e-06
 Reference value :  1.75010e-06
 Reference value :  1.75011e-06
 Reference value :  1.75013e-06
 Reference value :  1.75017e-06
 Reference value :  1.75020e-06
 Reference value :  1.75020e-06
 Reference value :  1.75020e-06
 Reference value :  1.75021e-06
 Reference value :  1.75021e-06
 Reference value :  1.75023e-06
 Reference value :  1.75025e-06
 Reference value :  1.75030e-06
 Reference value :  1.75041e-06
 Reference value :  1.75062e-06
 Reference value :  1.75097e-06
 Reference value :  1.75134e-06
 Reference value :  1.75181e-06
 Reference value :  1.75234e-06
 Reference value :  1.75304e-06
 Reference value :  1.75386e-06
 Reference value :  1.75464e-06
 Reference value :  1.75552e-06
 Reference value :  1.75637e-06
 Reference value :  1.75716e-06
 Reference value :  1.75808e-06
 Reference value :  1.75909e-06
 Reference value :  1.76032e-06
 Reference value :  1.76153e-06
 Reference value :  1.76339e-06
 Reference value :  1.76545e-06
 Reference value :  1.76860e-06
 Reference value :  1.77319e-06
 Reference value :  1.78237e-06
 Reference value :  1.80073e-06
 Reference value :  1.83577e-06
 Reference value :  1.90584e-06
 Reference value :  2.00000e-06
 Reference value :  2.00001e-06
 Reference value :  2.00003e-06
 Reference value :  2.00007e-06
 Reference value :  2.00010e-06
 Reference value :  2.00010e-06
 Reference value :  2.00011e-06
 Reference value :  2.00013e-06
 Reference value :  2.00016e-06
 Reference value :  2.00023e-06
 Reference value :  2.00036e-06
 Reference value :  2.00056e-06
 Reference value :  2.00096e-06
 Reference value :  2.00145e-06
 Reference value :  2.00198e-06
 Reference value :  2.00248e-06
 Reference value :  2.00302e-06
 Reference value :  2.00358e-06
 Reference value :  2.00432e-06
 Reference value :  2.00499e-06
 Reference value :  2.00563e-06
 Reference value :  2.00631e-06
 Reference value :  2.00699e-06
 Reference value :  2.00773e-06
 Reference value :  2.00846e-06
 Reference value :  2.00931e-06
 Reference value :  2.01033e-06
 Reference value :  2.01181e-06
 Reference value :  2.01402e-06
 Reference value :  2.01545e-06
 Reference value :  2.01705e-06
 Reference value :  2.01856e-06
 Reference value :  2.01972e-06
 Reference value :  2.02082e-06
 Reference value :  2.02199e-06
 Reference value :  2.02322e-06
 Reference value :  2.02470e-06
 Reference value :  2.02608e-06
 Reference value :  2.02847e-06
 Reference value :  2.03070e-06
 Reference value :  2.03518e-06
 Reference value :  2.04338e-06
 Reference value :  2.05601e-06
 Reference value :  2.08127e-06
 Reference value :  2.11950e-06
 Reference value :  2.17367e-06
 Reference value :  2.24311e-06
 Reference value :  2.25010e-06
 Reference value :  2.25011e-06
 Reference value :  2.25013e-06
 Reference value :  2.25017e-06
 Reference value :  2.25020e-06
 Reference value :  2.25020e-06
 Reference value :  2.25020e-06
 Reference value :  2.25021e-06
 Reference value :  2.25021e-06
 Reference value :  2.25023e-06
 Reference value :  2.25025e-06
 Reference value :  2.25031e-06
 Reference value :  2.25041e-06
 Reference value :  2.25062e-06
 Reference value :  2.25098e-06
 Reference value :  2.25135e-06
 Reference value :  2.25182e-06
 Reference value :  2.25236e-06
 Reference value :  2.25305e-06
 Reference value :  2.25388e-06
 Reference value :  2.25465e-06
 Reference value :  2.25550e-06
 Reference value :  2.25638e-06
 Reference value :  2.25721e-06
 Reference value :  2.25853e-06
 Reference value :  2.25988e-06
 Reference value :  2.26192e-06
 Reference value :  2.26470e-06
 Reference value :  2.26880e-06
 Reference value :  2.27699e-06
 Reference value :  2.29063e-06
 Reference value :  2.31546e-06
 Reference value :  2.36078e-06
 Reference value :  2.43016e-06
 Reference value :  2.50000e-06
 Reference value :  2.50001e-06
 Reference value :  2.50003e-06
 Reference value :  2.50007e-06
 Reference value :  2.50010e-06
 Reference value :  2.50010e-06
 Reference value :  2.50011e-06
 Reference value :  2.50013e-06
 Reference value :  2.50016e-06
 Reference value :  2.50023e-06
 Reference value :  2.50036e-06
 Reference value :  2.50056e-06
 Reference value :  2.50096e-06
 Reference value :  2.50145e-06
 Reference value :  2.50198e-06
 Reference value :  2.50245e-06
 Reference value :  2.50303e-06
 Reference value :  2.50356e-06
 Reference value :  2.50423e-06
 Reference value :  2.50495e-06
 Reference value :  2.50577e-06
 Reference value :  2.50683e-06
 Reference value :  2.50792e-06
 Reference value :  2.50936e-06
 Reference value :  2.51038e-06
 Reference value :  2.51153e-06
 Reference value :  2.51269e-06
 Reference value :  2.51409e-06
 Reference value :  2.51561e-06
 Reference value :  2.51716e-06
 Reference value :  2.52025e-06
 Reference value :  2.52545e-06
 Reference value :  2.53486e-06
 Reference value :  2.55338e-06
 Reference value :  2.58710e-06
 Reference value :  2.65454e-06
 Reference value :  2.75010e-06
 Reference value :  2.75011e-06
 Reference value :  2.75013e-06
 Reference value :  2.75017e-06
 Reference value :  2.75020e-06
 Reference value :  2.75020e-06
 Reference value :  2.75020e-06
 Reference value :  2.75021e-06
 Reference value :  2.75021e-06
 Reference value :  2.75023e-06
 Reference value :  2.75025e-06
 Reference value :  2.75030e-06
 Reference value :  2.75041e-06
 Reference value :  2.75062e-06
 Reference value :  2.75097e-06
 Reference value :  2.75134e-06
 Reference value :  2.75181e-06
 Reference value :  2.75234e-06
 Reference value :  2.75304e-06
 Reference value :  2.75386e-06
 Reference value :  2.75464e-06
 Reference value :  2.75552e-06
 Reference value :  2.75637e-06
 Reference value :  2.75716e-06
 Reference value :  2.75808e-06
 Reference value :  2.75911e-06
 Reference value :  2.76037e-06
 Reference value :  2.76157e-06
 Reference value :  2.76344e-06
 Reference value :  2.76552e-06
 Reference value :  2.76868e-06
 Reference value :  2.77339e-06
 Reference value :  2.78282e-06
 Reference value :  2.80166e-06
 Reference value :  2.83789e-06
 Reference value :  2.91036e-06
 Reference value :  3.00000e-06
 Reference value :  3.00001e-06
 Reference value :  3.00003e-06
 Reference value :  3.00007e-06
 Reference value :  3.00010e-06
 Reference value :  3.00010e-06
 Reference value :  3.00011e-06
 Reference value :  3.00013e-06
 Reference value :  3.00016e-06
 Reference value :  3.00023e-06
 Reference value :  3.00036e-06
 Reference value :  3.00056e-06
 Reference value :  3.00096e-06
 Reference value :  3.00145e-06
 Reference value :  3.00198e-06
 Reference value :  3.00248e-06
 Reference value :  3.00302e-06
 Reference value :  3.00358e-06
 Reference value :  3.00432e-06
 Reference value :  3.00499e-06
 Reference value :  3.00564e-06
 Reference value :  3.00631e-06
 Reference value :  3.00700e-06
 Reference value :  3.00774e-06
 Reference value :  3.00844e-06
 Reference value :  3.00933e-06
 Reference value :  3.01032e-06
 Reference value :  3.01187e-06
 Reference value :  3.01337e-06
 Reference value :  3.01496e-06
 Reference value :  3.01646e-06
 Reference value :  3.01792e-06
 Reference value :  3.01901e-06
 Reference value :  3.02004e-06
 Reference value :  3.02121e-06
 Reference value :  3.02227e-06
 Reference value :  3.02337e-06
 Reference value :  3.02465e-06
 Reference value :  3.02637e-06
 Reference value :  3.02823e-06
 Reference value :  3.03140e-06
 Reference value :  3.03670e-06
 Reference value :  3.04484e-06
 Reference value :  3.05949e-06
 Reference value :  3.08234e-06
 Reference value :  3.10557e-06
 Reference value :  3.12436e-06
 Reference value :  3.14206e-06
 Reference value :  3.16086e-06
 Reference value :  3.17413e-06
 Reference value :  3.18614e-06
 Reference value :  3.19399e-06
 Reference value :  3.20450e-06
 Reference value :  3.21904e-06
 Reference value :  3.23683e-06
 Reference value :  3.25010e-06
 Reference value :  3.25011e-06
 Reference value :  3.25013e-06
 Reference value :  3.25017e-06
 Reference value :  3.25020e-06
 Reference value :  3.25020e-06
 Reference value :  3.25020e-06
 Reference value :  3.25021e-06
 Reference value :  3.25021e-06
 Reference value :  3.25023e-06
 Reference value :  3.25025e-06
 Reference value :  3.25031e-06
 Reference value :  3.25041e-06
 Reference value :  3.25062e-06
 Reference value :  3.25098e-06
 Reference value :  3.25135e-06
 Reference value :  3.25182e-06
 Reference value :  3.25236e-06
 Reference value :  3.25305e-06
 Reference value :  3.25388e-06
 Reference value :  3.25465e-06
 Reference value :  3.25551e-06
 Reference value :  3.25638e-06
 Reference value :  3.25722e-06
 Reference value :  3.25869e-06
 Reference value :  3.26001e-06
 Reference value :  3.26214e-06
 Reference value :  3.26492e-06
 Reference value :  3.26937e-06
 Reference value :  3.27827e-06
 Reference value :  3.29210e-06
 Reference value :  3.31855e-06
 Reference value :  3.36440e-06
 Reference value :  3.44563e-06
 Reference value :  3.50000e-06
 Reference value :  3.50001e-06
 Reference value :  3.50003e-06
 Reference value :  3.50007e-06
 Reference value :  3.50010e-06
 Reference value :  3.50010e-06
 Reference value :  3.50011e-06
 Reference value :  3.50013e-06
 Reference value :  3.50016e-06
 Reference value :  3.50023e-06
 Reference value :  3.50036e-06
 Reference value :  3.50056e-06
 Reference value :  3.50096e-06
 Reference value :  3.50146e-06
 Reference value :  3.50198e-06
 Reference value :  3.50245e-06
 Reference value :  3.50303e-06
 Reference value :  3.50356e-06
 Reference value :  3.50423e-06
 Reference value :  3.50495e-06
 Reference value :  3.50570e-06
 Reference value :  3.50678e-06
 Reference value :  3.50778e-06
 Reference value :  3.50927e-06
 Reference value :  3.51027e-06
 Reference value :  3.51142e-06
 Reference value :  3.51246e-06
 Reference value :  3.51370e-06
 Reference value :  3.51497e-06
 Reference value :  3.51639e-06
 Reference value :  3.51921e-06
 Reference value :  3.52471e-06
 Reference value :  3.53410e-06
 Reference value :  3.55289e-06
 Reference value :  3.59046e-06
 Reference value :  3.66560e-06
 Reference value :  3.75010e-06
 Reference value :  3.75011e-06
 Reference value :  3.75013e-06
 Reference value :  3.75017e-06
 Reference value :  3.75020e-06
 Reference value :  3.75020e-06
 Reference value :  3.75020e-06
 Reference value :  3.75021e-06
 Reference value :  3.75021e-06
 Reference value :  3.75023e-06
 Reference value :  3.75025e-06
 Reference value :  3.75030e-06
 Reference value :  3.75041e-06
 Reference value :  3.75062e-06
 Reference value :  3.75097e-06
 Reference value :  3.75134e-06
 Reference value :  3.75181e-06
 Reference value :  3.75234e-06
 Reference value :  3.75304e-06
 Reference value :  3.75386e-06
 Reference value :  3.75464e-06
 Reference value :  3.75552e-06
 Reference value :  3.75637e-06
 Reference value :  3.75716e-06
 Reference value :  3.75808e-06
 Reference value :  3.75909e-06
 Reference value :  3.76035e-06
 Reference value :  3.76155e-06
 Reference value :  3.76342e-06
 Reference value :  3.76549e-06
 Reference value :  3.76866e-06
 Reference value :  3.77333e-06
 Reference value :  3.78266e-06
 Reference value :  3.80133e-06
 Reference value :  3.83715e-06
 Reference value :  3.90880e-06
 Reference value :  4.00000e-06
 Reference value :  4.00001e-06
 Reference value :  4.00003e-06
 Reference value :  4.00007e-06
 Reference value :  4.00010e-06
 Reference value :  4.00010e-06
 Reference value :  4.00011e-06
 Reference value :  4.00013e-06
 Reference value :  4.00016e-06
 Reference value :  4.00023e-06
 Reference value :  4.00036e-06
 Reference value :  4.00056e-06
 Reference value :  4.00096e-06
 Reference value :  4.00145e-06
 Reference value :  4.00198e-06
 Reference value :  4.00248e-06
 Reference value :  4.00302e-06
 Reference value :  4.00358e-06
 Reference value :  4.00432e-06
 Reference value :  4.00499e-06
 Reference value :  4.00563e-06
 Reference value :  4.00631e-06
 Reference value :  4.00700e-06
 Reference value :  4.00774e-06
 Reference value :  4.00842e-06
 Reference value :  4.00937e-06
 Reference value :  4.01033e-06
 Reference value :  4.01196e-06
 Reference value :  4.01299e-06
 Reference value :  4.01422e-06
 Reference value :  4.01538e-06
 Reference value :  4.01681e-06
 Reference value :  4.01830e-06
 Reference value :  4.01945e-06
 Reference value :  4.02068e-06
 Reference value :  4.02191e-06
 Reference value :  4.02321e-06
 Reference value :  4.02470e-06
 Reference value :  4.02624e-06
 Reference value :  4.02851e-06
 Reference value :  4.03124e-06
 Reference value :  4.03668e-06
 Reference value :  4.04747e-06
 Reference value :  4.05802e-06
 Reference value :  4.06780e-06
 Reference value :  4.07425e-06
 Reference value :  4.08012e-06
 Reference value :  4.08714e-06
 Reference value :  4.09635e-06
 Reference value :  4.10740e-06
 Reference value :  4.12241e-06
 Reference value :  4.14179e-06
 Reference value :  4.16737e-06
 Reference value :  4.20337e-06
 Reference value :  4.25010e-06
 Reference value :  4.25011e-06
 Reference value :  4.25013e-06
 Reference value :  4.25017e-06
 Reference value :  4.25020e-06
 Reference value :  4.25020e-06
 Reference value :  4.25020e-06
 Reference value :  4.25021e-06
 Reference value :  4.25021e-06
 Reference value :  4.25023e-06
 Reference value :  4.25025e-06
 Reference value :  4.25030e-06
 Reference value :  4.25041e-06
 Reference value :  4.25062e-06
 Reference value :  4.25097e-06
 Reference value :  4.25134e-06
 Reference value :  4.25181e-06
 Reference value :  4.25234e-06
 Reference value :  4.25304e-06
 Reference value :  4.25386e-06
 Reference value :  4.25466e-06
 Reference value :  4.25556e-06
 Reference value :  4.25641e-06
 Reference value :  4.25729e-06
 Reference value :  4.25874e-06
 Reference value :  4.26010e-06
 Reference value :  4.26225e-06
 Reference value :  4.26508e-06
 Reference value :  4.26959e-06
 Reference value :  4.27862e-06
 Reference value :  4.29269e-06
 Reference value :  4.31951e-06
 Reference value :  4.34798e-06
 Reference value :  4.37426e-06
 Reference value :  4.40287e-06
 Reference value :  4.42171e-06
 Reference value :  4.43993e-06
 Reference value :  4.45611e-06
 Reference value :  4.47308e-06
 Reference value :  4.49156e-06
 Reference value :  4.50000e-06
 Reference value :  4.50001e-06
 Reference value :  4.50003e-06
 Reference value :  4.50007e-06
 Reference value :  4.50010e-06
 Reference value :  4.50010e-06
 Reference value :  4.50011e-06
 Reference value :  4.50013e-06
 Reference value :  4.50016e-06
 Reference value :  4.50023e-06
 Reference value :  4.50036e-06
 Reference value :  4.50056e-06
 Reference value :  4.50096e-06
 Reference value :  4.50145e-06
 Reference value :  4.50198e-06
 Reference value :  4.50245e-06
 Reference value :  4.50302e-06
 Reference value :  4.50356e-06
 Reference value :  4.50423e-06
 Reference value :  4.50494e-06
 Reference value :  4.50570e-06
 Reference value :  4.50678e-06
 Reference value :  4.50778e-06
 Reference value :  4.50916e-06
 Reference value :  4.51014e-06
 Reference value :  4.51124e-06
 Reference value :  4.51220e-06
 Reference value :  4.51336e-06
 Reference value :  4.51451e-06
 Reference value :  4.51587e-06
 Reference value :  4.51858e-06
 Reference value :  4.52396e-06
 Reference value :  4.53349e-06
 Reference value :  4.55256e-06
 Reference value :  4.59069e-06
 Reference value :  4.66695e-06
 Reference value :  4.75010e-06
 Reference value :  4.75011e-06
 Reference value :  4.75013e-06
 Reference value :  4.75017e-06
 Reference value :  4.75020e-06
 Reference value :  4.75020e-06
 Reference value :  4.75020e-06
 Reference value :  4.75021e-06
 Reference value :  4.75021e-06
 Reference value :  4.75023e-06
 Reference value :  4.75025e-06
 Reference value :  4.75030e-06
 Reference value :  4.75041e-06
 Reference value :  4.75062e-06
 Reference value :  4.75097e-06
 Reference value :  4.75134e-06
 Reference value :  4.75181e-06
 Reference value :  4.75234e-06
 Reference value :  4.75304e-06
 Reference value :  4.75386e-06
 Reference value :  4.75462e-06
 Reference value :  4.75549e-06
 Reference value :  4.75634e-06
 Reference value :  4.75712e-06
 Reference value :  4.75803e-06
 Reference value :  4.75904e-06
 Reference value :  4.76023e-06
 Reference value :  4.76146e-06
 Reference value :  4.76334e-06
 Reference value :  4.76537e-06
 Reference value :  4.76850e-06
 Reference value :  4.77292e-06
 Reference value :  4.78175e-06
 Reference value :  4.79942e-06
 Reference value :  4.83275e-06
 Reference value :  4.89942e-06
 Reference value :  5.00000e-06
 Reference value :  5.00001e-06
 Reference value :  5.00003e-06
 Reference value :  5.00007e-06
 Reference value :  5.00010e-06
 Reference value :  5.00010e-06
 Reference value :  5.00011e-06
 Reference value :  5.00013e-06
 Reference value :  5.00016e-06
 Reference value :  5.00023e-06
 Reference value :  5.00036e-06
 Reference value :  5.00056e-06
 Reference value :  5.00096e-06
 Reference value :  5.00145e-06
 Reference value :  5.00198e-06
 Reference value :  5.00247e-06
 Reference value :  5.00302e-06
 Reference value :  5.00358e-06
 Reference value :  5.00432e-06
 Reference value :  5.00499e-06
 Reference value :  5.00565e-06
 Reference value :  5.00634e-06
 Reference value :  5.00703e-06
 Reference value :  5.00771e-06
 Reference value :  5.00841e-06
 Reference value :  5.00934e-06
 Reference value :  5.01031e-06
 Reference value :  5.01198e-06
 Reference value :  5.01311e-06
 Reference value :  5.01434e-06
 Reference value :  5.01549e-06
 Reference value :  5.01689e-06
 Reference value :  5.01847e-06
 Reference value :  5.01966e-06
 Reference value :  5.02093e-06
 Reference value :  5.02207e-06
 Reference value :  5.02336e-06
 Reference value :  5.02488e-06
 Reference value :  5.02642e-06
 Reference value :  5.02873e-06
 Reference value :  5.03127e-06
 Reference value :  5.03306e-06
 Reference value :  5.03476e-06
 Reference value :  5.03665e-06
 Reference value :  5.03866e-06
 Reference value :  5.04145e-06
 Reference value :  5.04472e-06
 Reference value :  5.04929e-06
 Reference value :  5.05559e-06
 Reference value :  5.06372e-06
 Reference value :  5.07761e-06
 Reference value :  5.09290e-06
 Reference value :  5.11801e-06
 Reference value :  5.15763e-06
 Reference value :  5.21602e-06
 Reference value :  5.25010e-06
 Reference value :  5.25011e-06
 Reference value :  5.25013e-06
 Reference value :  5.25017e-06
 Reference value :  5.25020e-06
 Reference value :  5.25020e-06
 Reference value :  5.25020e-06
 Reference value :  5.25021e-06
 Reference value :  5.25021e-06
 Reference value :  5.25023e-06
 Reference value :  5.25025e-06
 Reference value :  5.25030e-06
 Reference value :  5.25041e-06
 Reference value :  5.25062e-06
 Reference value :  5.25098e-06
 Reference value :  5.25135e-06
 Reference value :  5.25182e-06
 Reference value :  5.25236e-06
 Reference value :  5.25307e-06
 Reference value :  5.25389e-06
 Reference value :  5.25467e-06
 Reference value :  5.25554e-06
 Reference value :  5.25642e-06
 Reference value :  5.25727e-06
 Reference value :  5.25873e-06
 Reference value :  5.26007e-06
 Reference value :  5.26220e-06
 Reference value :  5.26500e-06
 Reference value :  5.26960e-06
 Reference value :  5.27879e-06
 Reference value :  5.29262e-06
 Reference value :  5.31948e-06
 Reference value :  5.36495e-06
 Reference value :  5.44529e-06
 Reference value :  5.50000e-06
 Reference value :  5.50001e-06
 Reference value :  5.50003e-06
 Reference value :  5.50007e-06
 Reference value :  5.50010e-06
 Reference value :  5.50010e-06
 Reference value :  5.50011e-06
 Reference value :  5.50013e-06
 Reference value :  5.50016e-06
 Reference value :  5.50023e-06
 Reference value :  5.50036e-06
 Reference value :  5.50056e-06
 Reference value :  5.50096e-06
 Reference value :  5.50145e-06
 Reference value :  5.50198e-06
 Reference value :  5.50248e-06
 Reference value :  5.50302e-06
 Reference value :  5.50358e-06
 Reference value :  5.50434e-06
 Reference value :  5.50504e-06
 Reference value :  5.50592e-06
 Reference value :  5.50696e-06
 Reference value :  5.50810e-06
 Reference value :  5.50938e-06
 Reference value :  5.51053e-06
 Reference value :  5.51173e-06
 Reference value :  5.51297e-06
 Reference value :  5.51426e-06
 Reference value :  5.51600e-06
 Reference value :  5.51780e-06
 Reference value :  5.52112e-06
 Reference value :  5.52585e-06
 Reference value :  5.53405e-06
 Reference value :  5.54881e-06
 Reference value :  5.57384e-06
 Reference value :  5.62047e-06
 Reference value :  5.70295e-06
 Reference value :  5.75010e-06
 Reference value :  5.75011e-06
 Reference value :  5.75013e-06
 Reference value :  5.75017e-06
 Reference value :  5.75020e-06
 Reference value :  5.75020e-06
 Reference value :  5.75020e-06
 Reference value :  5.75021e-06
 Reference value :  5.75021e-06
 Reference value :  5.75023e-06
 Reference value :  5.75025e-06
 Reference value :  5.75031e-06
 Reference value :  5.75041e-06
 Reference value :  5.75062e-06
 Reference value :  5.75098e-06
 Reference value :  5.75135e-06
 Reference value :  5.75182e-06
 Reference value :  5.75236e-06
 Reference value :  5.75305e-06
 Reference value :  5.75388e-06
 Reference value :  5.75465e-06
 Reference value :  5.75551e-06
 Reference value :  5.75628e-06
 Reference value :  5.75708e-06
 Reference value :  5.75797e-06
 Reference value :  5.75898e-06
 Reference value :  5.76084e-06
 Reference value :  5.76333e-06
 Reference value :  5.76659e-06
 Reference value :  5.77276e-06
 Reference value :  5.78512e-06
 Reference value :  5.80640e-06
 Reference value :  5.84896e-06
 Reference value :  5.93408e-06
 Reference value :  6.00000e-06
 Reference value :  6.00001e-06
 Reference value :  6.00003e-06
 Reference value :  6.00007e-06
 Reference value :  6.00010e-06
 Reference value :  6.00010e-06
 Reference value :  6.00011e-06
 Reference value :  6.00013e-06
 Reference value :  6.00016e-06
 Reference value :  6.00023e-06
 Reference value :  6.00036e-06
 Reference value :  6.00056e-06
 Reference value :  6.00096e-06
 Reference value :  6.00145e-06
 Reference value :  6.00198e-06
 Reference value :  6.00248e-06
 Reference value :  6.00302e-06
 Reference value :  6.00358e-06
 Reference value :  6.00427e-06
 Reference value :  6.00499e-06
 Reference value :  6.00575e-06
 Reference value :  6.00651e-06
 Reference value :  6.00725e-06
 Reference value :  6.00799e-06
 Reference value :  6.00878e-06
 Reference value :  6.00980e-06
 Reference value :  6.01120e-06
 Reference value :  6.01334e-06
 Reference value :  6.01571e-06
 Reference value :  6.01748e-06
 Reference value :  6.01942e-06
 Reference value :  6.02091e-06
 Reference value :  6.02248e-06
 Reference value :  6.02416e-06
 Reference value :  6.02594e-06
 Reference value :  6.02783e-06
 Reference value :  6.03034e-06
 Reference value :  6.03439e-06
 Reference value :  6.04209e-06
 Reference value :  6.05438e-06
 Reference value :  6.06601e-06
 Reference value :  6.07952e-06
 Reference value :  6.10019e-06
 Reference value :  6.14150e-06
 Reference value :  6.20588e-06
 Reference value :  6.25010e-06
 Reference value :  6.25011e-06
 Reference value :  6.25013e-06
 Reference value :  6.25017e-06
 Reference value :  6.25020e-06
 Reference value :  6.25020e-06
 Reference value :  6.25020e-06
 Reference value :  6.25021e-06
 Reference value :  6.25021e-06
 Reference value :  6.25023e-06
 Reference value :  6.25025e-06
 Reference value :  6.25031e-06
 Reference value :  6.25041e-06
 Reference value :  6.25062e-06
 Reference value :  6.25098e-06
 Reference value :  6.25135e-06
 Reference value :  6.25182e-06
 Reference value :  6.25236e-06
 Reference value :  6.25305e-06
 Reference value :  6.25389e-06
 Reference value :  6.25467e-06
 Reference value :  6.25554e-06
 Reference value :  6.25641e-06
 Reference value :  6.25727e-06
 Reference value :  6.25873e-06
 Reference value :  6.26006e-06
 Reference value :  6.26220e-06
 Reference value :  6.26500e-06
 Reference value :  6.26959e-06
 Reference value :  6.27878e-06
 Reference value :  6.29261e-06
 Reference value :  6.31949e-06
 Reference value :  6.36501e-06
 Reference value :  6.44546e-06
 Reference value :  6.50000e-06
 Reference value :  6.50001e-06
 Reference value :  6.50003e-06
 Reference value :  6.50007e-06
 Reference value :  6.50010e-06
 Reference value :  6.50010e-06
 Reference value :  6.50011e-06
 Reference value :  6.50013e-06
 Reference value :  6.50016e-06
 Reference value :  6.50023e-06
 Reference value :  6.50036e-06
 Reference value :  6.50056e-06
 Reference value :  6.50096e-06
 Reference value :  6.50145e-06
 Reference value :  6.50198e-06
 Reference value :  6.50248e-06
 Reference value :  6.50302e-06
 Reference value :  6.50358e-06
 Reference value :  6.50433e-06
 Reference value :  6.50503e-06
 Reference value :  6.50584e-06
 Reference value :  6.50689e-06
 Reference value :  6.50797e-06
 Reference value :  6.50932e-06
 Reference value :  6.51035e-06
 Reference value :  6.51148e-06
 Reference value :  6.51252e-06
 Reference value :  6.51370e-06
 Reference value :  6.51497e-06
 Reference value :  6.51643e-06
 Reference value :  6.51936e-06
 Reference value :  6.52355e-06
 Reference value :  6.53194e-06
 Reference value :  6.54826e-06
 Reference value :  6.57853e-06
 Reference value :  6.63906e-06
 Reference value :  6.75010e-06
 Reference value :  6.75011e-06
 Reference value :  6.75013e-06
 Reference value :  6.75017e-06
 Reference value :  6.75020e-06
 Reference value :  6.75020e-06
 Reference value :  6.75020e-06
 Reference value :  6.75021e-06
 Reference value :  6.75021e-06
 Reference value :  6.75023e-06
 Reference value :  6.75025e-06
 Reference value :  6.75030e-06
 Reference value :  6.75041e-06
 Reference value :  6.75062e-06
 Reference value :  6.75097e-06
 Reference value :  6.75134e-06
 Reference value :  6.75181e-06
 Reference value :  6.75234e-06
 Reference value :  6.75304e-06
 Reference value :  6.75386e-06
 Reference value :  6.75463e-06
 Reference value :  6.75550e-06
 Reference value :  6.75628e-06
 Reference value :  6.75708e-06
 Reference value :  6.75797e-06
 Reference value :  6.75898e-06
 Reference value :  6.76085e-06
 Reference value :  6.76334e-06
 Reference value :  6.76660e-06
 Reference value :  6.77283e-06
 Reference value :  6.78530e-06
 Reference value :  6.80683e-06
 Reference value :  6.84989e-06
 Reference value :  6.93600e-06
 Reference value :  7.00000e-06
 Reference value :  7.00001e-06
 Reference value :  7.00003e-06
 Reference value :  7.00007e-06
 Reference value :  7.00010e-06
 Reference value :  7.00010e-06
 Reference value :  7.00011e-06
 Reference value :  7.00013e-06
 Reference value :  7.00016e-06
 Reference value :  7.00023e-06
 Reference value :  7.00036e-06
 Reference value :  7.00056e-06
 Reference value :  7.00096e-06
 Reference value :  7.00145e-06
 Reference value :  7.00198e-06
 Reference value :  7.00248e-06
 Reference value :  7.00302e-06
 Reference value :  7.00358e-06
 Reference value :  7.00427e-06
 Reference value :  7.00498e-06
 Reference value :  7.00579e-06
 Reference value :  7.00654e-06
 Reference value :  7.00732e-06
 Reference value :  7.00808e-06
 Reference value :  7.00889e-06
 Reference value :  7.00994e-06
 Reference value :  7.01134e-06
 Reference value :  7.01356e-06
 Reference value :  7.01593e-06
 Reference value :  7.01770e-06
 Reference value :  7.01946e-06
 Reference value :  7.02087e-06
 Reference value :  7.02240e-06
 Reference value :  7.02380e-06
 Reference value :  7.02524e-06
 Reference value :  7.02691e-06
 Reference value :  7.02937e-06
 Reference value :  7.03191e-06
 Reference value :  7.03698e-06
 Reference value :  7.04183e-06
 Reference value :  7.04778e-06
 Reference value :  7.05534e-06
 Reference value :  7.07045e-06
 Reference value :  7.10069e-06
 Reference value :  7.14323e-06
 Reference value :  7.19805e-06
 Reference value :  7.25010e-06
 Reference value :  7.25011e-06
 Reference value :  7.25013e-06
 Reference value :  7.25017e-06
 Reference value :  7.25020e-06
 Reference value :  7.25020e-06
 Reference value :  7.25020e-06
 Reference value :  7.25021e-06
 Reference value :  7.25021e-06
 Reference value :  7.25023e-06
 Reference value :  7.25025e-06
 Reference value :  7.25030e-06
 Reference value :  7.25041e-06
 Reference value :  7.25062e-06
 Reference value :  7.25097e-06
 Reference value :  7.25134e-06
 Reference value :  7.25181e-06
 Reference value :  7.25234e-06
 Reference value :  7.25305e-06
 Reference value :  7.25386e-06
 Reference value :  7.25462e-06
 Reference value :  7.25548e-06
 Reference value :  7.25635e-06
 Reference value :  7.25718e-06
 Reference value :  7.25846e-06
 Reference value :  7.25977e-06
 Reference value :  7.26181e-06
 Reference value :  7.26455e-06
 Reference value :  7.26851e-06
 Reference value :  7.27643e-06
 Reference value :  7.28982e-06
 Reference value :  7.31392e-06
 Reference value :  7.35839e-06
 Reference value :  7.44732e-06
 Reference value :  7.50000e-06
 Reference value :  7.50001e-06
 Reference value :  7.50003e-06
 Reference value :  7.50007e-06
 Reference value :  7.50010e-06
 Reference value :  7.50010e-06
 Reference value :  7.50011e-06
 Reference value :  7.50013e-06
 Reference value :  7.50016e-06
 Reference value :  7.50023e-06
 Reference value :  7.50036e-06
 Reference value :  7.50056e-06
 Reference value :  7.50096e-06
 Reference value :  7.50145e-06
 Reference value :  7.50197e-06
 Reference value :  7.50246e-06
 Reference value :  7.50300e-06
 Reference value :  7.50355e-06
 Reference value :  7.50430e-06
 Reference value :  7.50500e-06
 Reference value :  7.50588e-06
 Reference value :  7.50691e-06
 Reference value :  7.50804e-06
 Reference value :  7.50942e-06
 Reference value :  7.51048e-06
 Reference value :  7.51163e-06
 Reference value :  7.51263e-06
 Reference value :  7.51381e-06
 Reference value :  7.51502e-06
 Reference value :  7.51642e-06
 Reference value :  7.51922e-06
 Reference value :  7.52382e-06
 Reference value :  7.53301e-06
 Reference value :  7.55118e-06
 Reference value :  7.58594e-06
 Reference value :  7.65546e-06
 Reference value :  7.75010e-06
 Reference value :  7.75011e-06
 Reference value :  7.75013e-06
 Reference value :  7.75017e-06
 Reference value :  7.75020e-06
 Reference value :  7.75020e-06
 Reference value :  7.75020e-06
 Reference value :  7.75021e-06
 Reference value :  7.75021e-06
 Reference value :  7.75023e-06
 Reference value :  7.75025e-06
 Reference value :  7.75030e-06
 Reference value :  7.75041e-06
 Reference value :  7.75062e-06
 Reference value :  7.75097e-06
 Reference value :  7.75134e-06
 Reference value :  7.75181e-06
 Reference value :  7.75234e-06
 Reference value :  7.75304e-06
 Reference value :  7.75386e-06
 Reference value :  7.75459e-06
 Reference value :  7.75543e-06
 Reference value :  7.75618e-06
 Reference value :  7.75696e-06
 Reference value :  7.75784e-06
 Reference value :  7.75883e-06
 Reference value :  7.76070e-06
 Reference value :  7.76314e-06
 Reference value :  7.76637e-06
 Reference value :  7.77208e-06
 Reference value :  7.78351e-06
 Reference value :  7.80415e-06
 Reference value :  7.84445e-06
 Reference value :  7.92506e-06
 Reference value :  8.00000e-06
 Reference value :  8.00001e-06
 Reference value :  8.00003e-06
 Reference value :  8.00007e-06
 Reference value :  8.00010e-06
 Reference value :  8.00010e-06
 Reference value :  8.00011e-06
 Reference value :  8.00013e-06
 Reference value :  8.00016e-06
 Reference value :  8.00023e-06
 Reference value :  8.00036e-06
 Reference value :  8.00056e-06
 Reference value :  8.00096e-06
 Reference value :  8.00145e-06
 Reference value :  8.00197e-06
 Reference value :  8.00246e-06
 Reference value :  8.00300e-06
 Reference value :  8.00356e-06
 Reference value :  8.00432e-06
 Reference value :  8.00501e-06
 Reference value :  8.00580e-06
 Reference value :  8.00661e-06
 Reference value :  8.00744e-06
 Reference value :  8.00824e-06
 Reference value :  8.00908e-06
 Reference value :  8.01016e-06
 Reference value :  8.01158e-06
 Reference value :  8.01406e-06
 Reference value :  8.01653e-06
 Reference value :  8.01846e-06
 Reference value :  8.02059e-06
 Reference value :  8.02324e-06
 Reference value :  8.02604e-06
 Reference value :  8.03045e-06
 Reference value :  8.03620e-06
 Reference value :  8.04507e-06
 Reference value :  8.05885e-06
 Reference value :  8.08246e-06
 Reference value :  8.12132e-06
 Reference value :  8.19884e-06
 Reference value :  8.25010e-06
 Reference value :  8.25011e-06
 Reference value :  8.25013e-06
 Reference value :  8.25017e-06
 Reference value :  8.25020e-06
 Reference value :  8.25020e-06
 Reference value :  8.25020e-06
 Reference value :  8.25021e-06
 Reference value :  8.25021e-06
 Reference value :  8.25023e-06
 Reference value :  8.25025e-06
 Reference value :  8.25030e-06
 Reference value :  8.25041e-06
 Reference value :  8.25062e-06
 Reference value :  8.25097e-06
 Reference value :  8.25134e-06
 Reference value :  8.25181e-06
 Reference value :  8.25234e-06
 Reference value :  8.25304e-06
 Reference value :  8.25386e-06
 Reference value :  8.25494e-06
 Reference value :  8.25597e-06
 Reference value :  8.25728e-06
 Reference value :  8.25853e-06
 Reference value :  8.26071e-06
 Reference value :  8.26276e-06
 Reference value :  8.26618e-06
 Reference value :  8.27072e-06
 Reference value :  8.27979e-06
 Reference value :  8.29793e-06
 Reference value :  8.33421e-06
 Reference value :  8.40677e-06
 Reference value :  8.50000e-06
 Reference value :  8.50000e-06
 Reference value :  8.50000e-06
 Reference value :  8.50000e-06
 Reference value :  8.50000e-06
 Reference value :  8.50000e-06
 Reference value :  8.50000e-06
 Reference value :  8.50000e-06
 Reference value :  8.50000e-06
 Reference value :  8.50000e-06
 Reference value :  8.50001e-06
 Reference value :  8.50001e-06
 Reference value :  8.50002e-06
 Reference value :  8.50004e-06
 Reference value :  8.50008e-06
 Reference value :  8.50010e-06
 Reference value :  8.50010e-06
 Reference value :  8.50011e-06
 Reference value :  8.50012e-06
 Reference value :  8.50014e-06
 Reference value :  8.50018e-06
 Reference value :  8.50027e-06
 Reference value :  8.50044e-06
 Reference value :  8.50079e-06
 Reference value :  8.50129e-06
 Reference value :  8.50198e-06
 Reference value :  8.50269e-06
 Reference value :  8.50333e-06
 Reference value :  8.50398e-06
 Reference value :  8.50464e-06
 Reference value :  8.50535e-06
 Reference value :  8.50632e-06
 Reference value :  8.50732e-06
 Reference value :  8.50883e-06
 Reference value :  8.51049e-06
 Reference value :  8.51174e-06
 Reference value :  8.51314e-06
 Reference value :  8.51500e-06
 Reference value :  8.51728e-06
 Reference value :  8.51956e-06
 Reference value :  8.52412e-06
 Reference value :  8.52975e-06
 Reference value :  8.53349e-06
 Reference value :  8.53670e-06
 Reference value :  8.53940e-06
 Reference value :  8.54165e-06
 Reference value :  8.54352e-06
 Reference value :  8.54549e-06
 Reference value :  8.54739e-06
 Reference value :  8.54960e-06
 Reference value :  8.55185e-06
 Reference value :  8.55436e-06
 Reference value :  8.55794e-06
 Reference value :  8.56205e-06
 Reference value :  8.56657e-06
 Reference value :  8.57449e-06
 Reference value :  8.58267e-06
 Reference value :  8.59737e-06
 Reference value :  8.61206e-06
 Reference value :  8.64143e-06
 Reference value :  8.67942e-06
 Reference value :  8.74844e-06
 Reference value :  8.75010e-06
 Reference value :  8.75011e-06
 Reference value :  8.75013e-06
 Reference value :  8.75017e-06
 Reference value :  8.75020e-06
 Reference value :  8.75020e-06
 Reference value :  8.75020e-06
 Reference value :  8.75021e-06
 Reference value :  8.75021e-06
 Reference value :  8.75023e-06
 Reference value :  8.75025e-06
 Reference value :  8.75030e-06
 Reference value :  8.75041e-06
 Reference value :  8.75062e-06
 Reference value :  8.75098e-06
 Reference value :  8.75136e-06
 Reference value :  8.75184e-06
 Reference value :  8.75237e-06
 Reference value :  8.75302e-06
 Reference value :  8.75391e-06
 Reference value :  8.75480e-06
 Reference value :  8.75564e-06
 Reference value :  8.75650e-06
 Reference value :  8.75738e-06
 Reference value :  8.75872e-06
 Reference value :  8.76020e-06
 Reference value :  8.76224e-06
 Reference value :  8.76519e-06
 Reference value :  8.76984e-06
 Reference value :  8.77912e-06
 Reference value :  8.79335e-06
 Reference value :  8.82031e-06
 Reference value :  8.86656e-06
 Reference value :  8.94755e-06
 Reference value :  9.00000e-06
 Reference value :  9.00001e-06
 Reference value :  9.00003e-06
 Reference value :  9.00007e-06
 Reference value :  9.00010e-06
 Reference value :  9.00010e-06
 Reference value :  9.00011e-06
 Reference value :  9.00013e-06
 Reference value :  9.00016e-06
 Reference value :  9.00023e-06
 Reference value :  9.00036e-06
 Reference value :  9.00058e-06
 Reference value :  9.00100e-06
 Reference value :  9.00150e-06
 Reference value :  9.00203e-06
 Reference value :  9.00253e-06
 Reference value :  9.00314e-06
 Reference value :  9.00375e-06
 Reference value :  9.00447e-06
 Reference value :  9.00527e-06
 Reference value :  9.00602e-06
 Reference value :  9.00717e-06
 Reference value :  9.00828e-06
 Reference value :  9.01015e-06
 Reference value :  9.01228e-06
 Reference value :  9.01384e-06
 Reference value :  9.01559e-06
 Reference value :  9.01734e-06
 Reference value :  9.01937e-06
 Reference value :  9.02163e-06
 Reference value :  9.02383e-06
 Reference value :  9.02811e-06
 Reference value :  9.03428e-06
 Reference value :  9.04261e-06
 Reference value :  9.05925e-06
 Reference value :  9.08519e-06
 Reference value :  9.13707e-06
 Reference value :  9.23105e-06
 Reference value :  9.25010e-06
 Reference value :  9.25011e-06
 Reference value :  9.25013e-06
 Reference value :  9.25017e-06
 Reference value :  9.25020e-06
 Reference value :  9.25020e-06
 Reference value :  9.25020e-06
 Reference value :  9.25021e-06
 Reference value :  9.25021e-06
 Reference value :  9.25023e-06
 Reference value :  9.25025e-06
 Reference value :  9.25030e-06
 Reference value :  9.25041e-06
 Reference value :  9.25062e-06
 Reference value :  9.25097e-06
 Reference value :  9.25135e-06
 Reference value :  9.25182e-06
 Reference value :  9.25236e-06
 Reference value :  9.25308e-06
 Reference value :  9.25392e-06
 Reference value :  9.25467e-06
 Reference value :  9.25554e-06
 Reference value :  9.25632e-06
 Reference value :  9.25712e-06
 Reference value :  9.25805e-06
 Reference value :  9.25908e-06
 Reference value :  9.26095e-06
 Reference value :  9.26348e-06
 Reference value :  9.26679e-06
 Reference value :  9.27341e-06
 Reference value :  9.28626e-06
 Reference value :  9.30765e-06
 Reference value :  9.35043e-06
 Reference value :  9.43598e-06
 Reference value :  9.50000e-06
 Reference value :  9.50001e-06
 Reference value :  9.50003e-06
 Reference value :  9.50007e-06
 Reference value :  9.50010e-06
 Reference value :  9.50010e-06
 Reference value :  9.50011e-06
 Reference value :  9.50013e-06
 Reference value :  9.50016e-06
 Reference value :  9.50023e-06
 Reference value :  9.50036e-06
 Reference value :  9.50058e-06
 Reference value :  9.50100e-06
 Reference value :  9.50150e-06
 Reference value :  9.50203e-06
 Reference value :  9.50253e-06
 Reference value :  9.50314e-06
 Reference value :  9.50370e-06
 Reference value :  9.50448e-06
 Reference value :  9.50521e-06
 Reference value :  9.50588e-06
 Reference value :  9.50671e-06
 Reference value :  9.50756e-06
 Reference value :  9.50836e-06
 Reference value :  9.50920e-06
 Reference value :  9.51030e-06
 Reference value :  9.51170e-06
 Reference value :  9.51392e-06
 Reference value :  9.51598e-06
 Reference value :  9.51778e-06
 Reference value :  9.51928e-06
 Reference value :  9.52036e-06
 Reference value :  9.52151e-06
 Reference value :  9.52257e-06
 Reference value :  9.52370e-06
 Reference value :  9.52496e-06
 Reference value :  9.52688e-06
 Reference value :  9.52869e-06
 Reference value :  9.53221e-06
 Reference value :  9.53648e-06
 Reference value :  9.54123e-06
 Reference value :  9.54455e-06
 Reference value :  9.54817e-06
 Reference value :  9.55058e-06
 Reference value :  9.55274e-06
 Reference value :  9.55511e-06
 Reference value :  9.55831e-06
 Reference value :  9.56151e-06
 Reference value :  9.56447e-06
 Reference value :  9.56797e-06
 Reference value :  9.57137e-06
 Reference value :  9.57817e-06
 Reference value :  9.58670e-06
 Reference value :  9.59513e-06
 Reference value :  9.60310e-06
 Reference value :  9.61256e-06
 Reference value :  9.62697e-06
 Reference value :  9.64690e-06
 Reference value :  9.68339e-06
 Reference value :  9.75010e-06
 Reference value :  9.75011e-06
 Reference value :  9.75013e-06
 Reference value :  9.75017e-06
 Reference value :  9.75020e-06
 Reference value :  9.75020e-06
 Reference value :  9.75020e-06
 Reference value :  9.75021e-06
 Reference value :  9.75021e-06
 Reference value :  9.75023e-06
 Reference value :  9.75025e-06
 Reference value :  9.75031e-06
 Reference value :  9.75041e-06
 Reference value :  9.75062e-06
 Reference value :  9.75098e-06
 Reference value :  9.75135e-06
 Reference value :  9.75182e-06
 Reference value :  9.75236e-06
 Reference value :  9.75304e-06
 Reference value :  9.75389e-06
 Reference value :  9.75461e-06
 Reference value :  9.75543e-06
 Reference value :  9.75621e-06
 Reference value :  9.75702e-06
 Reference value :  9.75827e-06
 Reference value :  9.75954e-06
 Reference value :  9.76153e-06
 Reference value :  9.76419e-06
 Reference value :  9.76781e-06
 Reference value :  9.77505e-06
 Reference value :  9.78811e-06
 Reference value :  9.81070e-06
 Reference value :  9.85440e-06
 Reference value :  9.94178e-06
 Reference value :  1.00000e-05
 Reference value :  1.00000e-05
 Reference value :  1.00000e-05
 Reference value :  1.00001e-05
 Reference value :  1.00001e-05
 Reference value :  1.00001e-05
 Reference value :  1.00001e-05
 Reference value :  1.00001e-05
 Reference value :  1.00002e-05
 Reference value :  1.00002e-05
 Reference value :  1.00004e-05
 Reference value :  1.00006e-05
 Reference value :  1.00010e-05
 Reference value :  1.00015e-05
 Reference value :  1.00020e-05
 Reference value :  1.00025e-05
 Reference value :  1.00030e-05
 Reference value :  1.00036e-05
 Reference value :  1.00042e-05
 Reference value :  1.00049e-05
 Reference value :  1.00058e-05
 Reference value :  1.00068e-05
 Reference value :  1.00079e-05
 Reference value :  1.00094e-05
 Reference value :  1.00104e-05
 Reference value :  1.00115e-05
 Reference value :  1.00128e-05
 Reference value :  1.00143e-05
 Reference value :  1.00157e-05
 Reference value :  1.00174e-05
 Reference value :  1.00207e-05
 Reference value :  1.00251e-05
 Reference value :  1.00340e-05
 Reference value :  1.00504e-05
 Reference value :  1.00801e-05
 Reference value :  1.01394e-05
 Reference value :  1.02501e-05
 Reference value :  1.02501e-05
 Reference value :  1.02501e-05
 Reference value :  1.02502e-05
 Reference value :  1.02502e-05
 Reference value :  1.02502e-05
 Reference value :  1.02502e-05
 Reference value :  1.02502e-05
 Reference value :  1.02502e-05
 Reference value :  1.02502e-05
 Reference value :  1.02503e-05
 Reference value :  1.02503e-05
 Reference value :  1.02504e-05
 Reference value :  1.02506e-05
 Reference value :  1.02510e-05
 Reference value :  1.02513e-05
 Reference value :  1.02518e-05
 Reference value :  1.02523e-05
 Reference value :  1.02530e-05
 Reference value :  1.02539e-05
 Reference value :  1.02546e-05
 Reference value :  1.02555e-05
 Reference value :  1.02564e-05
 Reference value :  1.02572e-05
 Reference value :  1.02581e-05
 Reference value :  1.02591e-05
 Reference value :  1.02603e-05
 Reference value :  1.02615e-05
 Reference value :  1.02634e-05
 Reference value :  1.02655e-05
 Reference value :  1.02686e-05
 Reference value :  1.02732e-05
 Reference value :  1.02824e-05
 Reference value :  1.03009e-05
 Reference value :  1.03361e-05
 Reference value :  1.04065e-05
 Reference value :  1.05000e-05
 Reference value :  1.05000e-05
 Reference value :  1.05000e-05
 Reference value :  1.05001e-05
 Reference value :  1.05001e-05
 Reference value :  1.05001e-05
 Reference value :  1.05001e-05
 Reference value :  1.05001e-05
 Reference value :  1.05002e-05
 Reference value :  1.05002e-05
 Reference value :  1.05004e-05
 Reference value :  1.05006e-05
 Reference value :  1.05010e-05
 Reference value :  1.05015e-05
 Reference value :  1.05020e-05
 Reference value :  1.05025e-05
 Reference value :  1.05030e-05
 Reference value :  1.05036e-05
 Reference value :  1.05043e-05
 Reference value :  1.05050e-05
 Reference value :  1.05056e-05
 Reference value :  1.05063e-05
 Reference value :  1.05070e-05
 Reference value :  1.05077e-05
 Reference value :  1.05085e-05
 Reference value :  1.05093e-05
 Reference value :  1.05103e-05
 Reference value :  1.05118e-05
 Reference value :  1.05140e-05
 Reference value :  1.05155e-05
 Reference value :  1.05171e-05
 Reference value :  1.05186e-05
 Reference value :  1.05197e-05
 Reference value :  1.05208e-05
 Reference value :  1.05220e-05
 Reference value :  1.05232e-05
 Reference value :  1.05247e-05
 Reference value :  1.05261e-05
 Reference value :  1.05284e-05
 Reference value :  1.05307e-05
 Reference value :  1.05351e-05
 Reference value :  1.05432e-05
 Reference value :  1.05555e-05
 Reference value :  1.05801e-05
 Reference value :  1.06182e-05
 Reference value :  1.06713e-05
 Reference value :  1.07390e-05
 Reference value :  1.07501e-05
 Reference value :  1.07501e-05
 Reference value :  1.07501e-05
 Reference value :  1.07502e-05
 Reference value :  1.07502e-05
 Reference value :  1.07502e-05
 Reference value :  1.07502e-05
 Reference value :  1.07502e-05
 Reference value :  1.07502e-05
 Reference value :  1.07502e-05
 Reference value :  1.07503e-05
 Reference value :  1.07503e-05
 Reference value :  1.07504e-05
 Reference value :  1.07506e-05
 Reference value :  1.07510e-05
 Reference value :  1.07514e-05
 Reference value :  1.07518e-05
 Reference value :  1.07524e-05
 Reference value :  1.07531e-05
 Reference value :  1.07539e-05
 Reference value :  1.07546e-05
 Reference value :  1.07555e-05
 Reference value :  1.07564e-05
 Reference value :  1.07572e-05
 Reference value :  1.07587e-05
 Reference value :  1.07600e-05
 Reference value :  1.07621e-05
 Reference value :  1.07649e-05
 Reference value :  1.07693e-05
 Reference value :  1.07782e-05
 Reference value :  1.07918e-05
 Reference value :  1.08178e-05
 Reference value :  1.08626e-05
 Reference value :  1.09294e-05
 Reference value :  1.10000e-05
 Reference value :  1.10000e-05
 Reference value :  1.10000e-05
 Reference value :  1.10001e-05
 Reference value :  1.10001e-05
 Reference value :  1.10001e-05
 Reference value :  1.10001e-05
 Reference value :  1.10001e-05
 Reference value :  1.10002e-05
 Reference value :  1.10002e-05
 Reference value :  1.10004e-05
 Reference value :  1.10006e-05
 Reference value :  1.10010e-05
 Reference value :  1.10015e-05
 Reference value :  1.10020e-05
 Reference value :  1.10025e-05
 Reference value :  1.10030e-05
 Reference value :  1.10036e-05
 Reference value :  1.10042e-05
 Reference value :  1.10049e-05
 Reference value :  1.10058e-05
 Reference value :  1.10068e-05
 Reference value :  1.10079e-05
 Reference value :  1.10094e-05
 Reference value :  1.10104e-05
 Reference value :  1.10115e-05
 Reference value :  1.10127e-05
 Reference value :  1.10141e-05
 Reference value :  1.10156e-05
 Reference value :  1.10172e-05
 Reference value :  1.10203e-05
 Reference value :  1.10254e-05
 Reference value :  1.10349e-05
 Reference value :  1.10533e-05
 Reference value :  1.10870e-05
 Reference value :  1.11543e-05
 Reference value :  1.12501e-05
 Reference value :  1.12501e-05
 Reference value :  1.12501e-05
 Reference value :  1.12502e-05
 Reference value :  1.12502e-05
 Reference value :  1.12502e-05
 Reference value :  1.12502e-05
 Reference value :  1.12502e-05
 Reference value :  1.12502e-05
 Reference value :  1.12502e-05
 Reference value :  1.12503e-05
 Reference value :  1.12503e-05
 Reference value :  1.12504e-05
 Reference value :  1.12506e-05
 Reference value :  1.12510e-05
 Reference value :  1.12513e-05
 Reference value :  1.12518e-05
 Reference value :  1.12523e-05
 Reference value :  1.12530e-05
 Reference value :  1.12539e-05
 Reference value :  1.12546e-05
 Reference value :  1.12555e-05
 Reference value :  1.12564e-05
 Reference value :  1.12572e-05
 Reference value :  1.12581e-05
 Reference value :  1.12591e-05
 Reference value :  1.12604e-05
 Reference value :  1.12616e-05
 Reference value :  1.12634e-05
 Reference value :  1.12655e-05
 Reference value :  1.12687e-05
 Reference value :  1.12734e-05
 Reference value :  1.12828e-05
 Reference value :  1.13016e-05
 Reference value :  1.13376e-05
 Reference value :  1.14096e-05
 Reference value :  1.15000e-05
 Reference value :  1.15000e-05
 Reference value :  1.15000e-05
 Reference value :  1.15001e-05
 Reference value :  1.15001e-05
 Reference value :  1.15001e-05
 Reference value :  1.15001e-05
 Reference value :  1.15001e-05
 Reference value :  1.15002e-05
 Reference value :  1.15002e-05
 Reference value :  1.15004e-05
 Reference value :  1.15006e-05
 Reference value :  1.15010e-05
 Reference value :  1.15015e-05
 Reference value :  1.15020e-05
 Reference value :  1.15025e-05
 Reference value :  1.15030e-05
 Reference value :  1.15036e-05
 Reference value :  1.15043e-05
 Reference value :  1.15050e-05
 Reference value :  1.15056e-05
 Reference value :  1.15063e-05
 Reference value :  1.15070e-05
 Reference value :  1.15077e-05
 Reference value :  1.15084e-05
 Reference value :  1.15093e-05
 Reference value :  1.15103e-05
 Reference value :  1.15119e-05
 Reference value :  1.15134e-05
 Reference value :  1.15150e-05
 Reference value :  1.15165e-05
 Reference value :  1.15179e-05
 Reference value :  1.15190e-05
 Reference value :  1.15200e-05
 Reference value :  1.15212e-05
 Reference value :  1.15223e-05
 Reference value :  1.15234e-05
 Reference value :  1.15247e-05
 Reference value :  1.15264e-05
 Reference value :  1.15282e-05
 Reference value :  1.15314e-05
 Reference value :  1.15367e-05
 Reference value :  1.15449e-05
 Reference value :  1.15596e-05
 Reference value :  1.15825e-05
 Reference value :  1.16098e-05
 Reference value :  1.16271e-05
 Reference value :  1.16462e-05
 Reference value :  1.16587e-05
 Reference value :  1.16712e-05
 Reference value :  1.16826e-05
 Reference value :  1.16930e-05
 Reference value :  1.17137e-05
 Reference value :  1.17501e-05
 Reference value :  1.17501e-05
 Reference value :  1.17501e-05
 Reference value :  1.17502e-05
 Reference value :  1.17502e-05
 Reference value :  1.17502e-05
 Reference value :  1.17502e-05
 Reference value :  1.17502e-05
 Reference value :  1.17502e-05
 Reference value :  1.17502e-05
 Reference value :  1.17503e-05
 Reference value :  1.17503e-05
 Reference value :  1.17504e-05
 Reference value :  1.17506e-05
 Reference value :  1.17510e-05
 Reference value :  1.17513e-05
 Reference value :  1.17518e-05
 Reference value :  1.17524e-05
 Reference value :  1.17531e-05
 Reference value :  1.17539e-05
 Reference value :  1.17547e-05
 Reference value :  1.17555e-05
 Reference value :  1.17564e-05
 Reference value :  1.17572e-05
 Reference value :  1.17587e-05
 Reference value :  1.17600e-05
 Reference value :  1.17621e-05
 Reference value :  1.17649e-05
 Reference value :  1.17693e-05
 Reference value :  1.17782e-05
 Reference value :  1.17918e-05
 Reference value :  1.18179e-05
 Reference value :  1.18626e-05
 Reference value :  1.19437e-05
 Reference value :  1.20000e-05
 Reference value :  1.20000e-05
 Reference value :  1.20000e-05
 Reference value :  1.20001e-05
 Reference value :  1.20001e-05
 Reference value :  1.20001e-05
 Reference value :  1.20001e-05
 Reference value :  1.20001e-05
 Reference value :  1.20002e-05
 Reference value :  1.20002e-05
 Reference value :  1.20004e-05
 Reference value :  1.20006e-05
 Reference value :  1.20010e-05
 Reference value :  1.20015e-05
 Reference value :  1.20020e-05
 Reference value :  1.20025e-05
 Reference value :  1.20030e-05
 Reference value :  1.20036e-05
 Reference value :  1.20042e-05
 Reference value :  1.20049e-05
 Reference value :  1.20057e-05
 Reference value :  1.20068e-05
 Reference value :  1.20078e-05
 Reference value :  1.20093e-05
 Reference value :  1.20103e-05
 Reference value :  1.20114e-05
 Reference value :  1.20125e-05
 Reference value :  1.20137e-05
 Reference value :  1.20150e-05
 Reference value :  1.20164e-05
 Reference value :  1.20192e-05
 Reference value :  1.20247e-05
 Reference value :  1.20341e-05
 Reference value :  1.20528e-05
 Reference value :  1.20903e-05
 Reference value :  1.21652e-05
 Reference value :  1.22501e-05
 Reference value :  1.22501e-05
 Reference value :  1.22501e-05
 Reference value :  1.22502e-05
 Reference value :  1.22502e-05
 Reference value :  1.22502e-05
 Reference value :  1.22502e-05
 Reference value :  1.22502e-05
 Reference value :  1.22502e-05
 Reference value :  1.22502e-05
 Reference value :  1.22503e-05
 Reference value :  1.22503e-05
 Reference value :  1.22504e-05
 Reference value :  1.22506e-05
 Reference value :  1.22510e-05
 Reference value :  1.22513e-05
 Reference value :  1.22518e-05
 Reference value :  1.22523e-05
 Reference value :  1.22530e-05
 Reference value :  1.22539e-05
 Reference value :  1.22546e-05
 Reference value :  1.22555e-05
 Reference value :  1.22564e-05
 Reference value :  1.22572e-05
 Reference value :  1.22581e-05
 Reference value :  1.22591e-05
 Reference value :  1.22603e-05
 Reference value :  1.22616e-05
 Reference value :  1.22634e-05
 Reference value :  1.22655e-05
 Reference value :  1.22687e-05
 Reference value :  1.22733e-05
 Reference value :  1.22827e-05
 Reference value :  1.23013e-05
 Reference value :  1.23371e-05
 Reference value :  1.24086e-05
 Reference value :  1.25000e-05
 Reference value :  1.25000e-05
 Reference value :  1.25000e-05
 Reference value :  1.25001e-05
 Reference value :  1.25001e-05
 Reference value :  1.25001e-05
 Reference value :  1.25001e-05
 Reference value :  1.25001e-05
 Reference value :  1.25002e-05
 Reference value :  1.25002e-05
 Reference value :  1.25004e-05
 Reference value :  1.25006e-05
 Reference value :  1.25010e-05
 Reference value :  1.25015e-05
 Reference value :  1.25020e-05
 Reference value :  1.25025e-05
 Reference value :  1.25030e-05
 Reference value :  1.25036e-05
 Reference value :  1.25043e-05
 Reference value :  1.25050e-05
 Reference value :  1.25056e-05
 Reference value :  1.25063e-05
 Reference value :  1.25070e-05
 Reference value :  1.25077e-05
 Reference value :  1.25084e-05
 Reference value :  1.25094e-05
 Reference value :  1.25103e-05
 Reference value :  1.25120e-05
 Reference value :  1.25130e-05
 Reference value :  1.25142e-05
 Reference value :  1.25154e-05
 Reference value :  1.25168e-05
 Reference value :  1.25183e-05
 Reference value :  1.25194e-05
 Reference value :  1.25207e-05
 Reference value :  1.25219e-05
 Reference value :  1.25232e-05
 Reference value :  1.25249e-05
 Reference value :  1.25264e-05
 Reference value :  1.25287e-05
 Reference value :  1.25314e-05
 Reference value :  1.25368e-05
 Reference value :  1.25476e-05
 Reference value :  1.25584e-05
 Reference value :  1.25701e-05
 Reference value :  1.25780e-05
 Reference value :  1.25856e-05
 Reference value :  1.25939e-05
 Reference value :  1.26025e-05
 Reference value :  1.26152e-05
 Reference value :  1.26293e-05
 Reference value :  1.26487e-05
 Reference value :  1.26730e-05
 Reference value :  1.27039e-05
 Reference value :  1.27438e-05
 Reference value :  1.27501e-05
 Reference value :  1.27501e-05
 Reference value :  1.27501e-05
 Reference value :  1.27502e-05
 Reference value :  1.27502e-05
 Reference value :  1.27502e-05
 Reference value :  1.27502e-05
 Reference value :  1.27502e-05
 Reference value :  1.27502e-05
 Reference value :  1.27502e-05
 Reference value :  1.27503e-05
 Reference value :  1.27503e-05
 Reference value :  1.27504e-05
 Reference value :  1.27506e-05
 Reference value :  1.27510e-05
 Reference value :  1.27514e-05
 Reference value :  1.27518e-05
 Reference value :  1.27524e-05
 Reference value :  1.27531e-05
 Reference value :  1.27539e-05
 Reference value :  1.27547e-05
 Reference value :  1.27555e-05
 Reference value :  1.27564e-05
 Reference value :  1.27573e-05
 Reference value :  1.27587e-05
 Reference value :  1.27601e-05
 Reference value :  1.27622e-05
 Reference value :  1.27650e-05
 Reference value :  1.27695e-05
 Reference value :  1.27784e-05
 Reference value :  1.27870e-05
 Reference value :  1.27934e-05
 Reference value :  1.27996e-05
 Reference value :  1.28077e-05
 Reference value :  1.28160e-05
 Reference value :  1.28290e-05
 Reference value :  1.28388e-05
 Reference value :  1.28498e-05
 Reference value :  1.28650e-05
 Reference value :  1.28846e-05
 Reference value :  1.29173e-05
 Reference value :  1.29724e-05
 Reference value :  1.30000e-05
 Reference value :  1.30000e-05
 Reference value :  1.30000e-05
 Reference value :  1.30001e-05
 Reference value :  1.30001e-05
 Reference value :  1.30001e-05
 Reference value :  1.30001e-05
 Reference value :  1.30001e-05
 Reference value :  1.30002e-05
 Reference value :  1.30002e-05
 Reference value :  1.30004e-05
 Reference value :  1.30006e-05
 Reference value :  1.30010e-05
 Reference value :  1.30015e-05
 Reference value :  1.30020e-05
 Reference value :  1.30024e-05
 Reference value :  1.30030e-05
 Reference value :  1.30036e-05
 Reference value :  1.30042e-05
 Reference value :  1.30049e-05
 Reference value :  1.30057e-05
 Reference value :  1.30068e-05
 Reference value :  1.30078e-05
 Reference value :  1.30092e-05
 Reference value :  1.30101e-05
 Reference value :  1.30112e-05
 Reference value :  1.30122e-05
 Reference value :  1.30134e-05
 Reference value :  1.30145e-05
 Reference value :  1.30159e-05
 Reference value :  1.30186e-05
 Reference value :  1.30239e-05
 Reference value :  1.30335e-05
 Reference value :  1.30525e-05
 Reference value :  1.30905e-05
 Reference value :  1.31666e-05
 Reference value :  1.32501e-05
 Reference value :  1.32501e-05
 Reference value :  1.32501e-05
 Reference value :  1.32502e-05
 Reference value :  1.32502e-05
 Reference value :  1.32502e-05
 Reference value :  1.32502e-05
 Reference value :  1.32502e-05
 Reference value :  1.32502e-05
 Reference value :  1.32502e-05
 Reference value :  1.32503e-05
 Reference value :  1.32503e-05
 Reference value :  1.32504e-05
 Reference value :  1.32506e-05
 Reference value :  1.32510e-05
 Reference value :  1.32513e-05
 Reference value :  1.32518e-05
 Reference value :  1.32523e-05
 Reference value :  1.32530e-05
 Reference value :  1.32539e-05
 Reference value :  1.32546e-05
 Reference value :  1.32555e-05
 Reference value :  1.32563e-05
 Reference value :  1.32571e-05
 Reference value :  1.32580e-05
 Reference value :  1.32590e-05
 Reference value :  1.32602e-05
 Reference value :  1.32615e-05
 Reference value :  1.32633e-05
 Reference value :  1.32654e-05
 Reference value :  1.32685e-05
 Reference value :  1.32729e-05
 Reference value :  1.32818e-05
 Reference value :  1.32995e-05
 Reference value :  1.33330e-05
 Reference value :  1.33999e-05
 Reference value :  1.35000e-05
 Reference value :  1.35000e-05
 Reference value :  1.35000e-05
 Reference value :  1.35001e-05
 Reference value :  1.35001e-05
 Reference value :  1.35001e-05
 Reference value :  1.35001e-05
 Reference value :  1.35001e-05
 Reference value :  1.35002e-05
 Reference value :  1.35002e-05
 Reference value :  1.35004e-05
 Reference value :  1.35006e-05
 Reference value :  1.35010e-05
 Reference value :  1.35015e-05
 Reference value :  1.35020e-05
 Reference value :  1.35025e-05
 Reference value :  1.35030e-05
 Reference value :  1.35036e-05
 Reference value :  1.35043e-05
 Reference value :  1.35050e-05
 Reference value :  1.35056e-05
 Reference value :  1.35063e-05
 Reference value :  1.35070e-05
 Reference value :  1.35077e-05
 Reference value :  1.35084e-05
 Reference value :  1.35093e-05
 Reference value :  1.35103e-05
 Reference value :  1.35120e-05
 Reference value :  1.35131e-05
 Reference value :  1.35143e-05
 Reference value :  1.35155e-05
 Reference value :  1.35169e-05
 Reference value :  1.35184e-05
 Reference value :  1.35197e-05
 Reference value :  1.35209e-05
 Reference value :  1.35221e-05
 Reference value :  1.35234e-05
 Reference value :  1.35250e-05
 Reference value :  1.35264e-05
 Reference value :  1.35288e-05
 Reference value :  1.35310e-05
 Reference value :  1.35340e-05
 Reference value :  1.35366e-05
 Reference value :  1.35386e-05
 Reference value :  1.35405e-05
 Reference value :  1.35425e-05
 Reference value :  1.35450e-05
 Reference value :  1.35483e-05
 Reference value :  1.35524e-05
 Reference value :  1.35582e-05
 Reference value :  1.35666e-05
 Reference value :  1.35771e-05
 Reference value :  1.35957e-05
 Reference value :  1.36202e-05
 Reference value :  1.36606e-05
 Reference value :  1.37224e-05
 Reference value :  1.37501e-05
 Reference value :  1.37501e-05
 Reference value :  1.37501e-05
 Reference value :  1.37502e-05
 Reference value :  1.37502e-05
 Reference value :  1.37502e-05
 Reference value :  1.37502e-05
 Reference value :  1.37502e-05
 Reference value :  1.37502e-05
 Reference value :  1.37502e-05
 Reference value :  1.37503e-05
 Reference value :  1.37503e-05
 Reference value :  1.37504e-05
 Reference value :  1.37506e-05
 Reference value :  1.37510e-05
 Reference value :  1.37513e-05
 Reference value :  1.37518e-05
 Reference value :  1.37523e-05
 Reference value :  1.37531e-05
 Reference value :  1.37539e-05
 Reference value :  1.37547e-05
 Reference value :  1.37556e-05
 Reference value :  1.37564e-05
 Reference value :  1.37573e-05
 Reference value :  1.37587e-05
 Reference value :  1.37601e-05
 Reference value :  1.37622e-05
 Reference value :  1.37650e-05
 Reference value :  1.37696e-05
 Reference value :  1.37788e-05
 Reference value :  1.37927e-05
 Reference value :  1.38196e-05
 Reference value :  1.38654e-05
 Reference value :  1.39461e-05
 Reference value :  1.40000e-05
 Reference value :  1.40000e-05
 Reference value :  1.40000e-05
 Reference value :  1.40001e-05
 Reference value :  1.40001e-05
 Reference value :  1.40001e-05
 Reference value :  1.40001e-05
 Reference value :  1.40001e-05
 Reference value :  1.40002e-05
 Reference value :  1.40002e-05
 Reference value :  1.40004e-05
 Reference value :  1.40006e-05
 Reference value :  1.40010e-05
 Reference value :  1.40015e-05
 Reference value :  1.40020e-05
 Reference value :  1.40025e-05
 Reference value :  1.40030e-05
 Reference value :  1.40036e-05
 Reference value :  1.40043e-05
 Reference value :  1.40050e-05
 Reference value :  1.40059e-05
 Reference value :  1.40070e-05
 Reference value :  1.40081e-05
 Reference value :  1.40094e-05
 Reference value :  1.40105e-05
 Reference value :  1.40117e-05
 Reference value :  1.40130e-05
 Reference value :  1.40143e-05
 Reference value :  1.40160e-05
 Reference value :  1.40178e-05
 Reference value :  1.40211e-05
 Reference value :  1.40258e-05
 Reference value :  1.40340e-05
 Reference value :  1.40487e-05
 Reference value :  1.40737e-05
 Reference value :  1.41200e-05
 Reference value :  1.42019e-05
 Reference value :  1.42501e-05
 Reference value :  1.42501e-05
 Reference value :  1.42501e-05
 Reference value :  1.42502e-05
 Reference value :  1.42502e-05
 Reference value :  1.42502e-05
 Reference value :  1.42502e-05
 Reference value :  1.42502e-05
 Reference value :  1.42502e-05
 Reference value :  1.42502e-05
 Reference value :  1.42503e-05
 Reference value :  1.42503e-05
 Reference value :  1.42504e-05
 Reference value :  1.42506e-05
 Reference value :  1.42510e-05
 Reference value :  1.42514e-05
 Reference value :  1.42518e-05
 Reference value :  1.42524e-05
 Reference value :  1.42531e-05
 Reference value :  1.42539e-05
 Reference value :  1.42546e-05
 Reference value :  1.42555e-05
 Reference value :  1.42563e-05
 Reference value :  1.42571e-05
 Reference value :  1.42580e-05
 Reference value :  1.42590e-05
 Reference value :  1.42608e-05
 Reference value :  1.42633e-05
 Reference value :  1.42666e-05
 Reference value :  1.42727e-05
 Reference value :  1.42851e-05
 Reference value :  1.43062e-05
 Reference value :  1.43484e-05
 Reference value :  1.44329e-05
 Reference value :  1.45000e-05
 Reference value :  1.45000e-05
 Reference value :  1.45000e-05
 Reference value :  1.45001e-05
 Reference value :  1.45001e-05
 Reference value :  1.45001e-05
 Reference value :  1.45001e-05
 Reference value :  1.45001e-05
 Reference value :  1.45002e-05
 Reference value :  1.45002e-05
 Reference value :  1.45004e-05
 Reference value :  1.45006e-05
 Reference value :  1.45010e-05
 Reference value :  1.45015e-05
 Reference value :  1.45020e-05
 Reference value :  1.45025e-05
 Reference value :  1.45030e-05
 Reference value :  1.45036e-05
 Reference value :  1.45043e-05
 Reference value :  1.45050e-05
 Reference value :  1.45057e-05
 Reference value :  1.45065e-05
 Reference value :  1.45072e-05
 Reference value :  1.45080e-05
 Reference value :  1.45088e-05
 Reference value :  1.45098e-05
 Reference value :  1.45112e-05
 Reference value :  1.45133e-05
 Reference value :  1.45157e-05
 Reference value :  1.45175e-05
 Reference value :  1.45194e-05
 Reference value :  1.45209e-05
 Reference value :  1.45225e-05
 Reference value :  1.45241e-05
 Reference value :  1.45258e-05
 Reference value :  1.45277e-05
 Reference value :  1.45302e-05
 Reference value :  1.45339e-05
 Reference value :  1.45413e-05
 Reference value :  1.45525e-05
 Reference value :  1.45644e-05
 Reference value :  1.45771e-05
 Reference value :  1.45936e-05
 Reference value :  1.46108e-05
 Reference value :  1.46398e-05
 Reference value :  1.46671e-05
 Reference value :  1.47144e-05
 Reference value :  1.47501e-05
 Reference value :  1.47501e-05
 Reference value :  1.47501e-05
 Reference value :  1.47502e-05
 Reference value :  1.47502e-05
 Reference value :  1.47502e-05
 Reference value :  1.47502e-05
 Reference value :  1.47502e-05
 Reference value :  1.47502e-05
 Reference value :  1.47502e-05
 Reference value :  1.47503e-05
 Reference value :  1.47503e-05
 Reference value :  1.47504e-05
 Reference value :  1.47506e-05
 Reference value :  1.47510e-05
 Reference value :  1.47514e-05
 Reference value :  1.47518e-05
 Reference value :  1.47524e-05
 Reference value :  1.47531e-05
 Reference value :  1.47539e-05
 Reference value :  1.47547e-05
 Reference value :  1.47555e-05
 Reference value :  1.47564e-05
 Reference value :  1.47573e-05
 Reference value :  1.47587e-05
 Reference value :  1.47600e-05
 Reference value :  1.47622e-05
 Reference value :  1.47650e-05
 Reference value :  1.47696e-05
 Reference value :  1.47787e-05
 Reference value :  1.47925e-05
 Reference value :  1.48191e-05
 Reference value :  1.48644e-05
 Reference value :  1.49442e-05
 Reference value :  1.50000e-05
 Reference value :  1.50000e-05
 Reference value :  1.50000e-05
 Reference value :  1.50001e-05
 Reference value :  1.50001e-05
 Reference value :  1.50001e-05
 Reference value :  1.50001e-05
 Reference value :  1.50001e-05
 Reference value :  1.50002e-05
 Reference value :  1.50002e-05
 Reference value :  1.50004e-05
 Reference value :  1.50006e-05
 Reference value :  1.50010e-05
 Reference value :  1.50015e-05
 Reference value :  1.50020e-05
 Reference value :  1.50025e-05
 Reference value :  1.50030e-05
 Reference value :  1.50036e-05
 Reference value :  1.50043e-05
 Reference value :  1.50050e-05
 Reference value :  1.50058e-05
 Reference value :  1.50069e-05
 Reference value :  1.50080e-05
 Reference value :  1.50093e-05
 Reference value :  1.50103e-05
 Reference value :  1.50115e-05
 Reference value :  1.50125e-05
 Reference value :  1.50137e-05
 Reference value :  1.50150e-05
 Reference value :  1.50164e-05
 Reference value :  1.50194e-05
 Reference value :  1.50235e-05
 Reference value :  1.50319e-05
 Reference value :  1.50482e-05
 Reference value :  1.50783e-05
 Reference value :  1.51385e-05
 Reference value :  1.52501e-05
 Reference value :  1.52501e-05
 Reference value :  1.52501e-05
 Reference value :  1.52502e-05
 Reference value :  1.52502e-05
 Reference value :  1.52502e-05
 Reference value :  1.52502e-05
 Reference value :  1.52502e-05
 Reference value :  1.52502e-05
 Reference value :  1.52502e-05
 Reference value :  1.52503e-05
 Reference value :  1.52503e-05
 Reference value :  1.52504e-05
 Reference value :  1.52506e-05
 Reference value :  1.52510e-05
 Reference value :  1.52513e-05
 Reference value :  1.52518e-05
 Reference value :  1.52523e-05
 Reference value :  1.52530e-05
 Reference value :  1.52539e-05
 Reference value :  1.52546e-05
 Reference value :  1.52555e-05
 Reference value :  1.52563e-05
 Reference value :  1.52571e-05
 Reference value :  1.52580e-05
 Reference value :  1.52590e-05
 Reference value :  1.52608e-05
 Reference value :  1.52633e-05
 Reference value :  1.52666e-05
 Reference value :  1.52728e-05
 Reference value :  1.52852e-05
 Reference value :  1.53066e-05
 Reference value :  1.53495e-05
 Reference value :  1.54352e-05
 Reference value :  1.55000e-05
 Reference value :  1.55009e-05
 Reference value :  1.55028e-05
 Reference value :  1.55037e-05
 Reference value :  1.55047e-05
 Reference value :  1.55055e-05
 Reference value :  1.55063e-05
 Reference value :  1.55071e-05
 Reference value :  1.55078e-05
[...]
 Reference value :  1.66000e-04
 Reference value :  1.66000e-04
 Reference value :  1.66000e-04
 Reference value :  1.66000e-04
 Reference value :  1.66000e-04
 Reference value :  1.66000e-04
 Reference value :  1.66000e-04
 Reference value :  1.66000e-04
 Reference value :  1.66000e-04
 Reference value :  1.66000e-04
 Reference value :  1.66001e-04
 Reference value :  1.66001e-04
 Reference value :  1.66001e-04
 Reference value :  1.66002e-04
 Reference value :  1.66002e-04
 Reference value :  1.66003e-04
 Reference value :  1.66004e-04
 Reference value :  1.66004e-04
 Reference value :  1.66005e-04
 Reference value :  1.66006e-04
 Reference value :  1.66007e-04
 Reference value :  1.66008e-04
 Reference value :  1.66009e-04
 Reference value :  1.66010e-04
 Reference value :  1.66011e-04
 Reference value :  1.66012e-04
 Reference value :  1.66013e-04
 Reference value :  1.66015e-04
 Reference value :  1.66016e-04
 Reference value :  1.66019e-04
 Reference value :  1.66024e-04
 Reference value :  1.66033e-04
 Reference value :  1.66052e-04
 Reference value :  1.66091e-04
 Reference value :  1.66167e-04
 Reference value :  1.66250e-04
 Reference value :  1.66250e-04
 Reference value :  1.66250e-04
 Reference value :  1.66250e-04
 Reference value :  1.66250e-04
 Reference value :  1.66250e-04
 Reference value :  1.66250e-04
 Reference value :  1.66250e-04
 Reference value :  1.66250e-04
 Reference value :  1.66250e-04
 Reference value :  1.66250e-04
 Reference value :  1.66250e-04
 Reference value :  1.66250e-04
 Reference value :  1.66251e-04
 Reference value :  1.66251e-04
 Reference value :  1.66251e-04
 Reference value :  1.66252e-04
 Reference value :  1.66252e-04
 Reference value :  1.66253e-04
 Reference value :  1.66254e-04
 Reference value :  1.66255e-04
 Reference value :  1.66256e-04
 Reference value :  1.66256e-04
 Reference value :  1.66257e-04
 Reference value :  1.66258e-04
 Reference value :  1.66259e-04
 Reference value :  1.66260e-04
 Reference value :  1.66262e-04
 Reference value :  1.66263e-04
 Reference value :  1.66265e-04
 Reference value :  1.66269e-04
 Reference value :  1.66273e-04
 Reference value :  1.66282e-04
 Reference value :  1.66301e-04
 Reference value :  1.66336e-04
 Reference value :  1.66406e-04
 Reference value :  1.66500e-04
 Reference value :  1.66500e-04
 Reference value :  1.66500e-04
 Reference value :  1.66500e-04
 Reference value :  1.66500e-04
 Reference value :  1.66500e-04
 Reference value :  1.66500e-04
 Reference value :  1.66500e-04
 Reference value :  1.66500e-04
 Reference value :  1.66500e-04
 Reference value :  1.66500e-04
 Reference value :  1.66501e-04
 Reference value :  1.66501e-04
 Reference value :  1.66501e-04
 Reference value :  1.66502e-04
 Reference value :  1.66502e-04
 Reference value :  1.66503e-04
 Reference value :  1.66504e-04
 Reference value :  1.66504e-04
 Reference value :  1.66505e-04
 Reference value :  1.66506e-04
 Reference value :  1.66506e-04
 Reference value :  1.66507e-04
 Reference value :  1.66508e-04
 Reference value :  1.66508e-04
 Reference value :  1.66509e-04
 Reference value :  1.66510e-04
 Reference value :  1.66512e-04
 Reference value :  1.66513e-04
 Reference value :  1.66514e-04
 Reference value :  1.66515e-04
 Reference value :  1.66517e-04
 Reference value :  1.66518e-04
 Reference value :  1.66519e-04
 Reference value :  1.66521e-04
 Reference value :  1.66522e-04
 Reference value :  1.66523e-04
 Reference value :  1.66524e-04
 Reference value :  1.66526e-04
 Reference value :  1.66528e-04
 Reference value :  1.66530e-04
 Reference value :  1.66535e-04
 Reference value :  1.66542e-04
 Reference value :  1.66554e-04
 Reference value :  1.66566e-04
 Reference value :  1.66580e-04
 Reference value :  1.66593e-04
 Reference value :  1.66611e-04
 Reference value :  1.66645e-04
 Reference value :  1.66680e-04
 Reference value :  1.66703e-04
 Reference value :  1.66726e-04
 Reference value :  1.66750e-04
 Reference value :  1.66750e-04
 Reference value :  1.66750e-04
 Reference value :  1.66750e-04
 Reference value :  1.66750e-04
 Reference value :  1.66750e-04
 Reference value :  1.66750e-04
 Reference value :  1.66750e-04
 Reference value :  1.66750e-04
 Reference value :  1.66750e-04
 Reference value :  1.66750e-04
 Reference value :  1.66750e-04
 Reference value :  1.66750e-04
 Reference value :  1.66751e-04
 Reference value :  1.66751e-04
 Reference value :  1.66751e-04
 Reference value :  1.66752e-04
 Reference value :  1.66752e-04
 Reference value :  1.66753e-04
 Reference value :  1.66754e-04
 Reference value :  1.66755e-04
 Reference value :  1.66756e-04
 Reference value :  1.66756e-04
 Reference value :  1.66757e-04
 Reference value :  1.66759e-04
 Reference value :  1.66760e-04
 Reference value :  1.66762e-04
 Reference value :  1.66765e-04
 Reference value :  1.66769e-04
 Reference value :  1.66778e-04
 Reference value :  1.66792e-04
 Reference value :  1.66818e-04
 Reference value :  1.66863e-04
 Reference value :  1.66949e-04
 Reference value :  1.67000e-04
 Reference value :  1.67000e-04
 Reference value :  1.67000e-04
 Reference value :  1.67000e-04
 Reference value :  1.67000e-04
 Reference value :  1.67000e-04
 Reference value :  1.67000e-04
 Reference value :  1.67000e-04
 Reference value :  1.67000e-04
 Reference value :  1.67000e-04
 Reference value :  1.67000e-04
 Reference value :  1.67001e-04
 Reference value :  1.67001e-04
 Reference value :  1.67001e-04
 Reference value :  1.67002e-04
 Reference value :  1.67002e-04
 Reference value :  1.67003e-04
 Reference value :  1.67004e-04
 Reference value :  1.67004e-04
 Reference value :  1.67005e-04
 Reference value :  1.67006e-04
 Reference value :  1.67007e-04
 Reference value :  1.67008e-04
 Reference value :  1.67009e-04
 Reference value :  1.67010e-04
 Reference value :  1.67011e-04
 Reference value :  1.67012e-04
 Reference value :  1.67014e-04
 Reference value :  1.67015e-04
 Reference value :  1.67016e-04
 Reference value :  1.67019e-04
 Reference value :  1.67023e-04
 Reference value :  1.67032e-04
 Reference value :  1.67050e-04
 Reference value :  1.67083e-04
 Reference value :  1.67151e-04
 Reference value :  1.67250e-04
 Reference value :  1.67250e-04
 Reference value :  1.67250e-04
 Reference value :  1.67250e-04
 Reference value :  1.67250e-04
 Reference value :  1.67250e-04
 Reference value :  1.67250e-04
 Reference value :  1.67250e-04
 Reference value :  1.67250e-04
 Reference value :  1.67250e-04
 Reference value :  1.67250e-04
 Reference value :  1.67250e-04
 Reference value :  1.67250e-04
 Reference value :  1.67251e-04
 Reference value :  1.67251e-04
 Reference value :  1.67251e-04
 Reference value :  1.67252e-04
 Reference value :  1.67252e-04
 Reference value :  1.67253e-04
 Reference value :  1.67254e-04
 Reference value :  1.67255e-04
 Reference value :  1.67256e-04
 Reference value :  1.67256e-04
 Reference value :  1.67257e-04
 Reference value :  1.67258e-04
 Reference value :  1.67259e-04
 Reference value :  1.67260e-04
 Reference value :  1.67262e-04
 Reference value :  1.67263e-04
 Reference value :  1.67265e-04
 Reference value :  1.67269e-04
 Reference value :  1.67273e-04
 Reference value :  1.67282e-04
 Reference value :  1.67301e-04
 Reference value :  1.67336e-04
 Reference value :  1.67407e-04
 Reference value :  1.67500e-04
 Reference value :  1.67500e-04
 Reference value :  1.67500e-04
 Reference value :  1.67500e-04
 Reference value :  1.67500e-04
 Reference value :  1.67500e-04
 Reference value :  1.67500e-04
 Reference value :  1.67500e-04
 Reference value :  1.67500e-04
 Reference value :  1.67500e-04
 Reference value :  1.67500e-04
 Reference value :  1.67501e-04
 Reference value :  1.67501e-04
 Reference value :  1.67501e-04
 Reference value :  1.67502e-04
 Reference value :  1.67502e-04
 Reference value :  1.67503e-04
 Reference value :  1.67504e-04
 Reference value :  1.67504e-04
 Reference value :  1.67505e-04
 Reference value :  1.67506e-04
 Reference value :  1.67506e-04
 Reference value :  1.67507e-04
 Reference value :  1.67508e-04
 Reference value :  1.67508e-04
 Reference value :  1.67509e-04
 Reference value :  1.67510e-04
 Reference value :  1.67512e-04
 Reference value :  1.67513e-04
 Reference value :  1.67514e-04
 Reference value :  1.67515e-04
 Reference value :  1.67517e-04
 Reference value :  1.67518e-04
 Reference value :  1.67519e-04
 Reference value :  1.67520e-04
 Reference value :  1.67521e-04
 Reference value :  1.67522e-04
 Reference value :  1.67523e-04
 Reference value :  1.67524e-04
 Reference value :  1.67526e-04
 Reference value :  1.67528e-04
 Reference value :  1.67531e-04
 Reference value :  1.67536e-04
 Reference value :  1.67543e-04
 Reference value :  1.67550e-04
 Reference value :  1.67560e-04
 Reference value :  1.67573e-04
 Reference value :  1.67594e-04
 Reference value :  1.67637e-04
 Reference value :  1.67707e-04
 Reference value :  1.67750e-04
 Reference value :  1.67750e-04
 Reference value :  1.67750e-04
 Reference value :  1.67750e-04
 Reference value :  1.67750e-04
 Reference value :  1.67750e-04
 Reference value :  1.67750e-04
 Reference value :  1.67750e-04
 Reference value :  1.67750e-04
 Reference value :  1.67750e-04
 Reference value :  1.67750e-04
 Reference value :  1.67750e-04
 Reference value :  1.67750e-04
 Reference value :  1.67751e-04
 Reference value :  1.67751e-04
 Reference value :  1.67751e-04
 Reference value :  1.67752e-04
 Reference value :  1.67752e-04
 Reference value :  1.67753e-04
 Reference value :  1.67754e-04
 Reference value :  1.67755e-04
 Reference value :  1.67756e-04
 Reference value :  1.67756e-04
 Reference value :  1.67757e-04
 Reference value :  1.67759e-04
 Reference value :  1.67760e-04
 Reference value :  1.67762e-04
 Reference value :  1.67765e-04
 Reference value :  1.67769e-04
 Reference value :  1.67778e-04
 Reference value :  1.67792e-04
 Reference value :  1.67818e-04
 Reference value :  1.67863e-04
 Reference value :  1.67944e-04
 Reference value :  1.68000e-04
 Reference value :  1.68000e-04
 Reference value :  1.68000e-04
 Reference value :  1.68000e-04
 Reference value :  1.68000e-04
 Reference value :  1.68000e-04
 Reference value :  1.68000e-04
 Reference value :  1.68000e-04
 Reference value :  1.68000e-04
 Reference value :  1.68000e-04
 Reference value :  1.68000e-04
 Reference value :  1.68001e-04
 Reference value :  1.68001e-04
 Reference value :  1.68001e-04
 Reference value :  1.68002e-04
 Reference value :  1.68002e-04
 Reference value :  1.68003e-04
 Reference value :  1.68004e-04
 Reference value :  1.68004e-04
 Reference value :  1.68005e-04
 Reference value :  1.68006e-04
 Reference value :  1.68007e-04
 Reference value :  1.68008e-04
 Reference value :  1.68009e-04
 Reference value :  1.68010e-04
 Reference value :  1.68011e-04
 Reference value :  1.68012e-04
 Reference value :  1.68014e-04
 Reference value :  1.68015e-04
 Reference value :  1.68016e-04
 Reference value :  1.68019e-04
 Reference value :  1.68024e-04
 Reference value :  1.68032e-04
 Reference value :  1.68049e-04
 Reference value :  1.68082e-04
 Reference value :  1.68148e-04
 Reference value :  1.68250e-04
 Reference value :  1.68250e-04
 Reference value :  1.68250e-04
 Reference value :  1.68250e-04
 Reference value :  1.68250e-04
 Reference value :  1.68250e-04
 Reference value :  1.68250e-04
 Reference value :  1.68250e-04
 Reference value :  1.68250e-04
 Reference value :  1.68250e-04
 Reference value :  1.68250e-04
 Reference value :  1.68250e-04
 Reference value :  1.68250e-04
 Reference value :  1.68251e-04
 Reference value :  1.68251e-04
 Reference value :  1.68251e-04
 Reference value :  1.68252e-04
 Reference value :  1.68252e-04
 Reference value :  1.68253e-04
 Reference value :  1.68254e-04
 Reference value :  1.68255e-04
 Reference value :  1.68256e-04
 Reference value :  1.68256e-04
 Reference value :  1.68257e-04
 Reference value :  1.68258e-04
 Reference value :  1.68259e-04
 Reference value :  1.68260e-04
 Reference value :  1.68262e-04
 Reference value :  1.68263e-04
 Reference value :  1.68265e-04
 Reference value :  1.68269e-04
 Reference value :  1.68273e-04
 Reference value :  1.68282e-04
 Reference value :  1.68301e-04
 Reference value :  1.68336e-04
 Reference value :  1.68407e-04
 Reference value :  1.68500e-04
 Reference value :  1.68500e-04
 Reference value :  1.68500e-04
 Reference value :  1.68500e-04
 Reference value :  1.68500e-04
 Reference value :  1.68500e-04
 Reference value :  1.68500e-04
 Reference value :  1.68500e-04
 Reference value :  1.68500e-04
 Reference value :  1.68500e-04
 Reference value :  1.68500e-04
 Reference value :  1.68501e-04
 Reference value :  1.68501e-04
 Reference value :  1.68501e-04
 Reference value :  1.68502e-04
 Reference value :  1.68502e-04
 Reference value :  1.68503e-04
 Reference value :  1.68504e-04
 Reference value :  1.68504e-04
 Reference value :  1.68505e-04
 Reference value :  1.68506e-04
 Reference value :  1.68506e-04
 Reference value :  1.68507e-04
 Reference value :  1.68508e-04
 Reference value :  1.68508e-04
 Reference value :  1.68509e-04
 Reference value :  1.68510e-04
 Reference value :  1.68512e-04
 Reference value :  1.68513e-04
 Reference value :  1.68514e-04
 Reference value :  1.68516e-04
 Reference value :  1.68517e-04
 Reference value :  1.68518e-04
 Reference value :  1.68519e-04
 Reference value :  1.68520e-04
 Reference value :  1.68522e-04
 Reference value :  1.68523e-04
 Reference value :  1.68524e-04
 Reference value :  1.68525e-04
 Reference value :  1.68527e-04
 Reference value :  1.68529e-04
 Reference value :  1.68532e-04
 Reference value :  1.68537e-04
 Reference value :  1.68545e-04
 Reference value :  1.68552e-04
 Reference value :  1.68565e-04
 Reference value :  1.68591e-04
 Reference value :  1.68635e-04
 Reference value :  1.68718e-04
 Reference value :  1.68750e-04
 Reference value :  1.68750e-04
 Reference value :  1.68750e-04
 Reference value :  1.68750e-04
 Reference value :  1.68750e-04
 Reference value :  1.68750e-04
 Reference value :  1.68750e-04
 Reference value :  1.68750e-04
 Reference value :  1.68750e-04
 Reference value :  1.68750e-04
 Reference value :  1.68750e-04
 Reference value :  1.68750e-04
 Reference value :  1.68750e-04
 Reference value :  1.68751e-04
 Reference value :  1.68751e-04
 Reference value :  1.68751e-04
 Reference value :  1.68752e-04
 Reference value :  1.68752e-04
 Reference value :  1.68753e-04
 Reference value :  1.68754e-04
 Reference value :  1.68755e-04
 Reference value :  1.68755e-04
 Reference value :  1.68756e-04
 Reference value :  1.68757e-04
 Reference value :  1.68758e-04
 Reference value :  1.68760e-04
 Reference value :  1.68762e-04
 Reference value :  1.68764e-04
 Reference value :  1.68768e-04
 Reference value :  1.68775e-04
 Reference value :  1.68788e-04
 Reference value :  1.68811e-04
 Reference value :  1.68854e-04
 Reference value :  1.68942e-04
 Reference value :  1.69000e-04
 Reference value :  1.69000e-04
 Reference value :  1.69000e-04
 Reference value :  1.69000e-04
 Reference value :  1.69000e-04
 Reference value :  1.69000e-04
 Reference value :  1.69000e-04
 Reference value :  1.69000e-04
 Reference value :  1.69000e-04
 Reference value :  1.69000e-04
 Reference value :  1.69000e-04
 Reference value :  1.69001e-04
 Reference value :  1.69001e-04
 Reference value :  1.69001e-04
 Reference value :  1.69002e-04
 Reference value :  1.69002e-04
 Reference value :  1.69003e-04
 Reference value :  1.69004e-04
 Reference value :  1.69004e-04
 Reference value :  1.69005e-04
 Reference value :  1.69006e-04
 Reference value :  1.69007e-04
 Reference value :  1.69008e-04
 Reference value :  1.69009e-04
 Reference value :  1.69010e-04
 Reference value :  1.69012e-04
 Reference value :  1.69013e-04
 Reference value :  1.69014e-04
 Reference value :  1.69015e-04
 Reference value :  1.69016e-04
 Reference value :  1.69019e-04
 Reference value :  1.69024e-04
 Reference value :  1.69033e-04
 Reference value :  1.69052e-04
 Reference value :  1.69089e-04
 Reference value :  1.69163e-04
 Reference value :  1.69250e-04
 Reference value :  1.69250e-04
 Reference value :  1.69250e-04
 Reference value :  1.69250e-04
 Reference value :  1.69250e-04
 Reference value :  1.69250e-04
 Reference value :  1.69250e-04
 Reference value :  1.69250e-04
 Reference value :  1.69250e-04
 Reference value :  1.69250e-04
 Reference value :  1.69250e-04
 Reference value :  1.69250e-04
 Reference value :  1.69250e-04
 Reference value :  1.69251e-04
 Reference value :  1.69251e-04
 Reference value :  1.69251e-04
 Reference value :  1.69252e-04
 Reference value :  1.69252e-04
 Reference value :  1.69253e-04
 Reference value :  1.69254e-04
 Reference value :  1.69255e-04
 Reference value :  1.69255e-04
 Reference value :  1.69256e-04
 Reference value :  1.69257e-04
 Reference value :  1.69258e-04
 Reference value :  1.69259e-04
 Reference value :  1.69260e-04
 Reference value :  1.69261e-04
 Reference value :  1.69263e-04
 Reference value :  1.69265e-04
 Reference value :  1.69268e-04
 Reference value :  1.69272e-04
 Reference value :  1.69280e-04
 Reference value :  1.69294e-04
 Reference value :  1.69323e-04
 Reference value :  1.69381e-04
 Reference value :  1.69497e-04
 Reference value :  1.69500e-04
 Reference value :  1.69500e-04
 Reference value :  1.69500e-04
 Reference value :  1.69500e-04
 Reference value :  1.69500e-04
 Reference value :  1.69500e-04
 Reference value :  1.69500e-04
 Reference value :  1.69500e-04
 Reference value :  1.69500e-04
 Reference value :  1.69500e-04
 Reference value :  1.69500e-04
 Reference value :  1.69501e-04
 Reference value :  1.69501e-04
 Reference value :  1.69501e-04
 Reference value :  1.69502e-04
 Reference value :  1.69502e-04
 Reference value :  1.69503e-04
 Reference value :  1.69504e-04
 Reference value :  1.69504e-04
 Reference value :  1.69505e-04
 Reference value :  1.69506e-04
 Reference value :  1.69506e-04
 Reference value :  1.69507e-04
 Reference value :  1.69508e-04
 Reference value :  1.69508e-04
 Reference value :  1.69509e-04
 Reference value :  1.69510e-04
 Reference value :  1.69512e-04
 Reference value :  1.69513e-04
 Reference value :  1.69514e-04
 Reference value :  1.69516e-04
 Reference value :  1.69517e-04
 Reference value :  1.69519e-04
 Reference value :  1.69521e-04
 Reference value :  1.69523e-04
 Reference value :  1.69526e-04
 Reference value :  1.69529e-04
 Reference value :  1.69535e-04
 Reference value :  1.69540e-04
 Reference value :  1.69547e-04
 Reference value :  1.69555e-04
 Reference value :  1.69561e-04
 Reference value :  1.69567e-04
 Reference value :  1.69574e-04
 Reference value :  1.69581e-04
 Reference value :  1.69593e-04
 Reference value :  1.69613e-04
 Reference value :  1.69640e-04
 Reference value :  1.69694e-04
 Reference value :  1.69750e-04
 Reference value :  1.69750e-04
 Reference value :  1.69750e-04
 Reference value :  1.69750e-04
 Reference value :  1.69750e-04
 Reference value :  1.69750e-04
 Reference value :  1.69750e-04
 Reference value :  1.69750e-04
 Reference value :  1.69750e-04
 Reference value :  1.69750e-04
 Reference value :  1.69750e-04
 Reference value :  1.69750e-04
 Reference value :  1.69750e-04
 Reference value :  1.69751e-04
 Reference value :  1.69751e-04
 Reference value :  1.69751e-04
 Reference value :  1.69752e-04
 Reference value :  1.69752e-04
 Reference value :  1.69753e-04
 Reference value :  1.69754e-04
 Reference value :  1.69755e-04
 Reference value :  1.69756e-04
 Reference value :  1.69757e-04
 Reference value :  1.69759e-04
 Reference value :  1.69761e-04
 Reference value :  1.69763e-04
 Reference value :  1.69766e-04
 Reference value :  1.69771e-04
 Reference value :  1.69780e-04
 Reference value :  1.69798e-04
 Reference value :  1.69835e-04
 Reference value :  1.69909e-04
 Reference value :  1.70000e-04
No. of Data Rows : 26655
ngspice-44 done
