
Note: Compatibility modes selected: hs a


Circuit: ** sch_path: /home/samantha/cace/sar-adc-using-sky130-pdk/runs/run_2025-09-05_12-09-37/parameters/power/run_12/power_consumption.sch

option SCALE: Scale is set to 1e-06 for instance and model parameters
option SCALE: Scale is set to 1e-06 for instance and model parameters
option SCALE: Scale is set to 1e-06 for instance and model parameters
option SCALE: Scale is set to 1e-06 for instance and model parameters
Doing analysis at TEMP = 27.000000 and TNOM = 27.000000

Using KLU as Direct Linear Solver
 Reference value :  0.00000e+00
 Reference value :  2.00000e-12
 Reference value :  8.00000e-12
 Reference value :  3.20000e-11
 Reference value :  1.00000e-10
 Reference value :  1.19200e-10
 Reference value :  2.98400e-10
 Reference value :  7.06780e-10
 Reference value :  1.38393e-09
 Reference value :  1.76317e-09
 Reference value :  2.17228e-09
 Reference value :  2.51395e-09
 Reference value :  3.32437e-09
 Reference value :  3.73284e-09
 Reference value :  4.18539e-09
 Reference value :  4.69861e-09
 Reference value :  5.33717e-09
 Reference value :  5.99867e-09
 Reference value :  6.71410e-09
 Reference value :  7.49201e-09
 Reference value :  8.33202e-09
 Reference value :  9.32108e-09
 Reference value :  1.10310e-08
 Reference value :  1.16822e-08
 Reference value :  1.23926e-08
 Reference value :  1.40858e-08
 Reference value :  1.66364e-08
 Reference value :  1.95479e-08
 Reference value :  2.07862e-08
 Reference value :  2.17574e-08
 Reference value :  2.26190e-08
 Reference value :  2.35449e-08
 Reference value :  2.64984e-08
 Reference value :  3.28139e-08
 Reference value :  3.71143e-08
 Reference value :  4.63925e-08
 Reference value :  6.32502e-08
 Reference value :  1.09200e-07
 Reference value :  2.50100e-07
 Reference value :  2.50130e-07
 Reference value :  2.50200e-07
 Reference value :  2.50207e-07
 Reference value :  2.50246e-07
 Reference value :  2.50382e-07
 Reference value :  2.50665e-07
 Reference value :  2.51260e-07
 Reference value :  2.51642e-07
 Reference value :  2.52610e-07
 Reference value :  2.53280e-07
 Reference value :  2.53786e-07
 Reference value :  2.54333e-07
 Reference value :  2.55580e-07
 Reference value :  2.56350e-07
 Reference value :  2.59122e-07
 Reference value :  2.64993e-07
 Reference value :  2.84119e-07
 Reference value :  3.45878e-07
 Reference value :  5.00000e-07
 Reference value :  5.00030e-07
 Reference value :  5.00070e-07
 Reference value :  5.00108e-07
 Reference value :  5.00156e-07
 Reference value :  5.00337e-07
 Reference value :  5.00822e-07
 Reference value :  5.01575e-07
 Reference value :  5.02012e-07
 Reference value :  5.02415e-07
 Reference value :  5.02908e-07
 Reference value :  5.04022e-07
 Reference value :  5.05576e-07
 Reference value :  5.06705e-07
 Reference value :  5.07728e-07
 Reference value :  5.08814e-07
 Reference value :  5.09968e-07
 Reference value :  5.11181e-07
 Reference value :  5.12359e-07
 Reference value :  5.15725e-07
 Reference value :  5.21085e-07
 Reference value :  5.33704e-07
 Reference value :  5.76889e-07
 Reference value :  7.49632e-07
 Reference value :  7.50110e-07
 Reference value :  7.50130e-07
 Reference value :  7.50200e-07
 Reference value :  7.50224e-07
 Reference value :  7.50320e-07
 Reference value :  7.50584e-07
 Reference value :  7.51288e-07
 Reference value :  7.51723e-07
 Reference value :  7.52770e-07
 Reference value :  7.53305e-07
 Reference value :  7.53899e-07
 Reference value :  7.55055e-07
 Reference value :  7.55752e-07
 Reference value :  7.58072e-07
 Reference value :  7.63256e-07
 Reference value :  7.79944e-07
 Reference value :  8.46697e-07
 Reference value :  1.00000e-06
 Reference value :  1.00003e-06
 Reference value :  1.00007e-06
 Reference value :  1.00011e-06
 Reference value :  1.00016e-06
 Reference value :  1.00022e-06
 Reference value :  1.00051e-06
 Reference value :  1.00082e-06
 Reference value :  1.00118e-06
 Reference value :  1.00158e-06
 Reference value :  1.00242e-06
 Reference value :  1.00289e-06
 Reference value :  1.00396e-06
 Reference value :  1.00499e-06
 Reference value :  1.00554e-06
 Reference value :  1.00714e-06
 Reference value :  1.00863e-06
 Reference value :  1.01002e-06
 Reference value :  1.01121e-06
 Reference value :  1.01220e-06
 Reference value :  1.01419e-06
 Reference value :  1.01513e-06
 Reference value :  1.01721e-06
 Reference value :  1.02320e-06
 Reference value :  1.03496e-06
 Reference value :  1.06863e-06
 Reference value :  1.09080e-06
 Reference value :  1.11659e-06
 Reference value :  1.13222e-06
 Reference value :  1.14439e-06
 Reference value :  1.15644e-06
 Reference value :  1.16503e-06
 Reference value :  1.18511e-06
 Reference value :  1.21122e-06
 Reference value :  1.25010e-06
 Reference value :  1.25013e-06
 Reference value :  1.25020e-06
 Reference value :  1.25022e-06
 Reference value :  1.25032e-06
 Reference value :  1.25058e-06
 Reference value :  1.25129e-06
 Reference value :  1.25172e-06
 Reference value :  1.25215e-06
 Reference value :  1.25326e-06
 Reference value :  1.25382e-06
 Reference value :  1.25436e-06
 Reference value :  1.25491e-06
 Reference value :  1.25578e-06
 Reference value :  1.25823e-06
 Reference value :  1.26350e-06
 Reference value :  1.28237e-06
 Reference value :  1.35765e-06
 Reference value :  1.50000e-06
 Reference value :  1.50003e-06
 Reference value :  1.50010e-06
 Reference value :  1.50012e-06
 Reference value :  1.50022e-06
 Reference value :  1.50051e-06
 Reference value :  1.50082e-06
 Reference value :  1.50154e-06
 Reference value :  1.50195e-06
 Reference value :  1.50282e-06
 Reference value :  1.50333e-06
 Reference value :  1.50389e-06
 Reference value :  1.50537e-06
 Reference value :  1.50595e-06
 Reference value :  1.50665e-06
 Reference value :  1.50740e-06
 Reference value :  1.50822e-06
 Reference value :  1.51025e-06
 Reference value :  1.51640e-06
 Reference value :  1.53972e-06
 Reference value :  1.63299e-06
 Reference value :  1.75011e-06
 Reference value :  1.75017e-06
 Reference value :  1.75021e-06
 Reference value :  1.75026e-06
 Reference value :  1.75045e-06
 Reference value :  1.75082e-06
 Reference value :  1.75129e-06
 Reference value :  1.75215e-06
 Reference value :  1.75277e-06
 Reference value :  1.75330e-06
 Reference value :  1.75450e-06
 Reference value :  1.75575e-06
 Reference value :  1.75737e-06
 Reference value :  1.75950e-06
 Reference value :  1.76350e-06
 Reference value :  1.77349e-06
 Reference value :  1.81347e-06
 Reference value :  1.97339e-06
 Reference value :  2.00001e-06
 Reference value :  2.00007e-06
 Reference value :  2.00011e-06
 Reference value :  2.00016e-06
 Reference value :  2.00034e-06
 Reference value :  2.00082e-06
 Reference value :  2.00118e-06
 Reference value :  2.00158e-06
 Reference value :  2.00242e-06
 Reference value :  2.00290e-06
 Reference value :  2.00390e-06
 Reference value :  2.00483e-06
 Reference value :  2.00596e-06
 Reference value :  2.00766e-06
 Reference value :  2.00847e-06
 Reference value :  2.00932e-06
 Reference value :  2.01016e-06
 Reference value :  2.01111e-06
 Reference value :  2.01188e-06
 Reference value :  2.01266e-06
 Reference value :  2.01349e-06
 Reference value :  2.01436e-06
 Reference value :  2.01616e-06
 Reference value :  2.01864e-06
 Reference value :  2.02323e-06
 Reference value :  2.03579e-06
 Reference value :  2.06589e-06
 Reference value :  2.09506e-06
 Reference value :  2.10434e-06
 Reference value :  2.11323e-06
 Reference value :  2.12200e-06
 Reference value :  2.14263e-06
 Reference value :  2.16926e-06
 Reference value :  2.18666e-06
 Reference value :  2.23266e-06
 Reference value :  2.25010e-06
 Reference value :  2.25011e-06
 Reference value :  2.25017e-06
 Reference value :  2.25021e-06
 Reference value :  2.25026e-06
 Reference value :  2.25045e-06
 Reference value :  2.25082e-06
 Reference value :  2.25129e-06
 Reference value :  2.25173e-06
 Reference value :  2.25215e-06
 Reference value :  2.25278e-06
 Reference value :  2.25333e-06
 Reference value :  2.25393e-06
 Reference value :  2.25514e-06
 Reference value :  2.25716e-06
 Reference value :  2.26109e-06
 Reference value :  2.27294e-06
 Reference value :  2.31780e-06
 Reference value :  2.49722e-06
 Reference value :  2.50001e-06
 Reference value :  2.50007e-06
 Reference value :  2.50011e-06
 Reference value :  2.50016e-06
 Reference value :  2.50022e-06
 Reference value :  2.50051e-06
 Reference value :  2.50082e-06
 Reference value :  2.50158e-06
 Reference value :  2.50242e-06
 Reference value :  2.50290e-06
 Reference value :  2.50342e-06
 Reference value :  2.50474e-06
 Reference value :  2.50619e-06
 Reference value :  2.50692e-06
 Reference value :  2.50766e-06
 Reference value :  2.50943e-06
 Reference value :  2.51255e-06
 Reference value :  2.52280e-06
 Reference value :  2.55878e-06
 Reference value :  2.69717e-06
 Reference value :  2.75011e-06
 Reference value :  2.75017e-06
 Reference value :  2.75021e-06
 Reference value :  2.75026e-06
 Reference value :  2.75045e-06
 Reference value :  2.75082e-06
 Reference value :  2.75129e-06
 Reference value :  2.75215e-06
 Reference value :  2.75277e-06
 Reference value :  2.75331e-06
 Reference value :  2.75445e-06
 Reference value :  2.75571e-06
 Reference value :  2.75649e-06
 Reference value :  2.76003e-06
 Reference value :  2.76853e-06
 Reference value :  2.80089e-06
 Reference value :  2.93033e-06
 Reference value :  3.00001e-06
 Reference value :  3.00007e-06
 Reference value :  3.00011e-06
 Reference value :  3.00016e-06
 Reference value :  3.00034e-06
 Reference value :  3.00082e-06
 Reference value :  3.00158e-06
 Reference value :  3.00242e-06
 Reference value :  3.00289e-06
 Reference value :  3.00396e-06
 Reference value :  3.00500e-06
 Reference value :  3.00637e-06
 Reference value :  3.00715e-06
 Reference value :  3.00864e-06
 Reference value :  3.01002e-06
 Reference value :  3.01122e-06
 Reference value :  3.01220e-06
 Reference value :  3.01419e-06
 Reference value :  3.01512e-06
 Reference value :  3.01720e-06
 Reference value :  3.02036e-06
 Reference value :  3.02317e-06
 Reference value :  3.03185e-06
 Reference value :  3.03712e-06
 Reference value :  3.04250e-06
 Reference value :  3.04639e-06
 Reference value :  3.05487e-06
 Reference value :  3.06505e-06
 Reference value :  3.07666e-06
 Reference value :  3.09855e-06
 Reference value :  3.14574e-06
 Reference value :  3.24526e-06
 Reference value :  3.25011e-06
 Reference value :  3.25017e-06
 Reference value :  3.25021e-06
 Reference value :  3.25026e-06
 Reference value :  3.25045e-06
 Reference value :  3.25082e-06
 Reference value :  3.25129e-06
 Reference value :  3.25215e-06
 Reference value :  3.25277e-06
 Reference value :  3.25327e-06
 Reference value :  3.25383e-06
 Reference value :  3.25436e-06
 Reference value :  3.25492e-06
 Reference value :  3.25578e-06
 Reference value :  3.25824e-06
 Reference value :  3.26354e-06
 Reference value :  3.28211e-06
 Reference value :  3.35536e-06
 Reference value :  3.50000e-06
 Reference value :  3.50003e-06
 Reference value :  3.50010e-06
 Reference value :  3.50012e-06
 Reference value :  3.50016e-06
 Reference value :  3.50034e-06
 Reference value :  3.50082e-06
 Reference value :  3.50118e-06
 Reference value :  3.50154e-06
 Reference value :  3.50235e-06
 Reference value :  3.50282e-06
 Reference value :  3.50333e-06
 Reference value :  3.50389e-06
 Reference value :  3.50537e-06
 Reference value :  3.50595e-06
 Reference value :  3.50665e-06
 Reference value :  3.50740e-06
 Reference value :  3.50822e-06
 Reference value :  3.50922e-06
 Reference value :  3.51230e-06
 Reference value :  3.52412e-06
 Reference value :  3.57037e-06
 Reference value :  3.75010e-06
 Reference value :  3.75011e-06
 Reference value :  3.75013e-06
 Reference value :  3.75020e-06
 Reference value :  3.75022e-06
 Reference value :  3.75032e-06
 Reference value :  3.75058e-06
 Reference value :  3.75129e-06
 Reference value :  3.75172e-06
 Reference value :  3.75277e-06
 Reference value :  3.75330e-06
 Reference value :  3.75389e-06
 Reference value :  3.75450e-06
 Reference value :  3.75505e-06
 Reference value :  3.75575e-06
 Reference value :  3.75653e-06
 Reference value :  3.75737e-06
 Reference value :  3.75818e-06
 Reference value :  3.75950e-06
 Reference value :  3.76091e-06
 Reference value :  3.76683e-06
 Reference value :  3.78681e-06
 Reference value :  3.86676e-06
 Reference value :  4.00000e-06
 Reference value :  4.00001e-06
 Reference value :  4.00007e-06
 Reference value :  4.00011e-06
 Reference value :  4.00016e-06
 Reference value :  4.00022e-06
 Reference value :  4.00051e-06
 Reference value :  4.00082e-06
 Reference value :  4.00158e-06
 Reference value :  4.00242e-06
 Reference value :  4.00290e-06
 Reference value :  4.00342e-06
 Reference value :  4.00390e-06
 Reference value :  4.00483e-06
 Reference value :  4.00533e-06
 Reference value :  4.00596e-06
 Reference value :  4.00665e-06
 Reference value :  4.00767e-06
 Reference value :  4.00847e-06
 Reference value :  4.00932e-06
 Reference value :  4.01017e-06
 Reference value :  4.01112e-06
 Reference value :  4.01190e-06
 Reference value :  4.01353e-06
 Reference value :  4.01441e-06
 Reference value :  4.01624e-06
 Reference value :  4.01723e-06
 Reference value :  4.01880e-06
 Reference value :  4.02364e-06
 Reference value :  4.02749e-06
 Reference value :  4.03581e-06
 Reference value :  4.03888e-06
 Reference value :  4.04131e-06
 Reference value :  4.04382e-06
 Reference value :  4.04947e-06
 Reference value :  4.05921e-06
 Reference value :  4.07445e-06
 Reference value :  4.11075e-06
 Reference value :  4.19614e-06
 Reference value :  4.25011e-06
 Reference value :  4.25013e-06
 Reference value :  4.25020e-06
 Reference value :  4.25022e-06
 Reference value :  4.25032e-06
 Reference value :  4.25053e-06
 Reference value :  4.25096e-06
 Reference value :  4.25140e-06
 Reference value :  4.25180e-06
 Reference value :  4.25226e-06
 Reference value :  4.25290e-06
 Reference value :  4.25418e-06
 Reference value :  4.25479e-06
 Reference value :  4.25636e-06
 Reference value :  4.25956e-06
 Reference value :  4.26729e-06
 Reference value :  4.29717e-06
 Reference value :  4.41610e-06
 Reference value :  4.50001e-06
 Reference value :  4.50007e-06
 Reference value :  4.50011e-06
 Reference value :  4.50016e-06
 Reference value :  4.50035e-06
 Reference value :  4.50090e-06
 Reference value :  4.50183e-06
 Reference value :  4.50281e-06
 Reference value :  4.50395e-06
 Reference value :  4.50459e-06
 Reference value :  4.50595e-06
 Reference value :  4.50662e-06
 Reference value :  4.50747e-06
 Reference value :  4.50835e-06
 Reference value :  4.50921e-06
 Reference value :  4.51026e-06
 Reference value :  4.51364e-06
 Reference value :  4.52252e-06
 Reference value :  4.54925e-06
 Reference value :  4.65007e-06
 Reference value :  4.75011e-06
 Reference value :  4.75017e-06
 Reference value :  4.75021e-06
 Reference value :  4.75026e-06
 Reference value :  4.75039e-06
 Reference value :  4.75071e-06
 Reference value :  4.75140e-06
 Reference value :  4.75227e-06
 Reference value :  4.75290e-06
 Reference value :  4.75354e-06
 Reference value :  4.75472e-06
 Reference value :  4.75532e-06
 Reference value :  4.75607e-06
 Reference value :  4.75856e-06
 Reference value :  4.76458e-06
 Reference value :  4.78736e-06
 Reference value :  4.87850e-06
 Reference value :  5.00001e-06
 Reference value :  5.00007e-06
 Reference value :  5.00010e-06
 Reference value :  5.00011e-06
 Reference value :  5.00012e-06
 Reference value :  5.00016e-06
 Reference value :  5.00035e-06
 Reference value :  5.00090e-06
 Reference value :  5.00136e-06
 Reference value :  5.00183e-06
 Reference value :  5.00281e-06
 Reference value :  5.00339e-06
 Reference value :  5.00394e-06
 Reference value :  5.00492e-06
 Reference value :  5.00617e-06
 Reference value :  5.00840e-06
 Reference value :  5.00990e-06
 Reference value :  5.01120e-06
 Reference value :  5.01226e-06
 Reference value :  5.01328e-06
 Reference value :  5.01435e-06
 Reference value :  5.01535e-06
 Reference value :  5.01753e-06
 Reference value :  5.01917e-06
 Reference value :  5.02413e-06
 Reference value :  5.03191e-06
 Reference value :  5.03645e-06
 Reference value :  5.04212e-06
 Reference value :  5.04639e-06
 Reference value :  5.05692e-06
 Reference value :  5.06998e-06
 Reference value :  5.08517e-06
 Reference value :  5.11881e-06
 Reference value :  5.22086e-06
 Reference value :  5.25011e-06
 Reference value :  5.25017e-06
 Reference value :  5.25021e-06
 Reference value :  5.25026e-06
 Reference value :  5.25032e-06
 Reference value :  5.25053e-06
 Reference value :  5.25095e-06
 Reference value :  5.25178e-06
 Reference value :  5.25285e-06
 Reference value :  5.25405e-06
 Reference value :  5.25530e-06
 Reference value :  5.25618e-06
 Reference value :  5.25909e-06
 Reference value :  5.26587e-06
 Reference value :  5.29145e-06
 Reference value :  5.32555e-06
 Reference value :  5.39377e-06
 Reference value :  5.50000e-06
 Reference value :  5.50003e-06
 Reference value :  5.50010e-06
 Reference value :  5.50012e-06
 Reference value :  5.50022e-06
 Reference value :  5.50035e-06
 Reference value :  5.50090e-06
 Reference value :  5.50183e-06
 Reference value :  5.50230e-06
 Reference value :  5.50281e-06
 Reference value :  5.50336e-06
 Reference value :  5.50393e-06
 Reference value :  5.50455e-06
 Reference value :  5.50533e-06
 Reference value :  5.50589e-06
 Reference value :  5.50657e-06
 Reference value :  5.50749e-06
 Reference value :  5.50833e-06
 Reference value :  5.50925e-06
 Reference value :  5.51032e-06
 Reference value :  5.51150e-06
 Reference value :  5.51387e-06
 Reference value :  5.51722e-06
 Reference value :  5.52342e-06
 Reference value :  5.53435e-06
 Reference value :  5.55307e-06
 Reference value :  5.59052e-06
 Reference value :  5.66541e-06
 Reference value :  5.75010e-06
 Reference value :  5.75011e-06
 Reference value :  5.75013e-06
 Reference value :  5.75017e-06
 Reference value :  5.75020e-06
 Reference value :  5.75021e-06
 Reference value :  5.75022e-06
 Reference value :  5.75026e-06
 Reference value :  5.75032e-06
 Reference value :  5.75039e-06
 Reference value :  5.75053e-06
 Reference value :  5.75071e-06
 Reference value :  5.75096e-06
 Reference value :  5.75140e-06
 Reference value :  5.75180e-06
 Reference value :  5.75227e-06
 Reference value :  5.75290e-06
 Reference value :  5.75353e-06
 Reference value :  5.75413e-06
 Reference value :  5.75471e-06
 Reference value :  5.75530e-06
 Reference value :  5.75607e-06
 Reference value :  5.75689e-06
 Reference value :  5.75770e-06
 Reference value :  5.75857e-06
 Reference value :  5.76002e-06
 Reference value :  5.76152e-06
 Reference value :  5.76421e-06
 Reference value :  5.76834e-06
 Reference value :  5.77659e-06
 Reference value :  5.79310e-06
 Reference value :  5.82539e-06
 Reference value :  5.88996e-06
 Reference value :  6.00000e-06
 Reference value :  6.00001e-06
 Reference value :  6.00003e-06
 Reference value :  6.00007e-06
 Reference value :  6.00010e-06
 Reference value :  6.00011e-06
 Reference value :  6.00012e-06
 Reference value :  6.00016e-06
 Reference value :  6.00022e-06
 Reference value :  6.00035e-06
 Reference value :  6.00057e-06
 Reference value :  6.00090e-06
 Reference value :  6.00136e-06
 Reference value :  6.00183e-06
 Reference value :  6.00230e-06
 Reference value :  6.00281e-06
 Reference value :  6.00338e-06
 Reference value :  6.00393e-06
 Reference value :  6.00445e-06
 Reference value :  6.00491e-06
 Reference value :  6.00544e-06
 Reference value :  6.00618e-06
 Reference value :  6.00691e-06
 Reference value :  6.00796e-06
 Reference value :  6.00876e-06
 Reference value :  6.00962e-06
 Reference value :  6.01051e-06
 Reference value :  6.01147e-06
 Reference value :  6.01216e-06
 Reference value :  6.01280e-06
 Reference value :  6.01362e-06
 Reference value :  6.01449e-06
 Reference value :  6.01533e-06
 Reference value :  6.01633e-06
 Reference value :  6.01740e-06
 Reference value :  6.01902e-06
 Reference value :  6.02095e-06
 Reference value :  6.02350e-06
 Reference value :  6.02631e-06
 Reference value :  6.03071e-06
 Reference value :  6.03525e-06
 Reference value :  6.03858e-06
 Reference value :  6.04177e-06
 Reference value :  6.04591e-06
 Reference value :  6.05019e-06
 Reference value :  6.05540e-06
 Reference value :  6.06226e-06
 Reference value :  6.07510e-06
 Reference value :  6.09108e-06
 Reference value :  6.11924e-06
 Reference value :  6.16166e-06
 Reference value :  6.22387e-06
 Reference value :  6.25010e-06
 Reference value :  6.25011e-06
 Reference value :  6.25013e-06
 Reference value :  6.25017e-06
 Reference value :  6.25020e-06
 Reference value :  6.25021e-06
 Reference value :  6.25022e-06
 Reference value :  6.25026e-06
 Reference value :  6.25032e-06
 Reference value :  6.25039e-06
 Reference value :  6.25053e-06
 Reference value :  6.25069e-06
 Reference value :  6.25095e-06
 Reference value :  6.25137e-06
 Reference value :  6.25178e-06
 Reference value :  6.25223e-06
 Reference value :  6.25285e-06
 Reference value :  6.25349e-06
 Reference value :  6.25405e-06
 Reference value :  6.25464e-06
 Reference value :  6.25523e-06
 Reference value :  6.25619e-06
 Reference value :  6.25715e-06
 Reference value :  6.25897e-06
 Reference value :  6.26118e-06
 Reference value :  6.26560e-06
 Reference value :  6.27445e-06
 Reference value :  6.29147e-06
 Reference value :  6.32551e-06
 Reference value :  6.39359e-06
 Reference value :  6.50000e-06
 Reference value :  6.50001e-06
 Reference value :  6.50003e-06
 Reference value :  6.50007e-06
 Reference value :  6.50010e-06
 Reference value :  6.50011e-06
 Reference value :  6.50012e-06
 Reference value :  6.50016e-06
 Reference value :  6.50022e-06
 Reference value :  6.50035e-06
 Reference value :  6.50057e-06
 Reference value :  6.50090e-06
 Reference value :  6.50136e-06
 Reference value :  6.50183e-06
 Reference value :  6.50230e-06
 Reference value :  6.50281e-06
 Reference value :  6.50340e-06
 Reference value :  6.50395e-06
 Reference value :  6.50458e-06
 Reference value :  6.50537e-06
 Reference value :  6.50595e-06
 Reference value :  6.50662e-06
 Reference value :  6.50747e-06
 Reference value :  6.50835e-06
 Reference value :  6.50921e-06
 Reference value :  6.51025e-06
 Reference value :  6.51139e-06
 Reference value :  6.51362e-06
 Reference value :  6.51675e-06
 Reference value :  6.52245e-06
 Reference value :  6.53232e-06
 Reference value :  6.54902e-06
 Reference value :  6.58241e-06
 Reference value :  6.64921e-06
 Reference value :  6.75010e-06
 Reference value :  6.75011e-06
 Reference value :  6.75013e-06
 Reference value :  6.75017e-06
 Reference value :  6.75020e-06
 Reference value :  6.75021e-06
 Reference value :  6.75022e-06
 Reference value :  6.75026e-06
 Reference value :  6.75032e-06
 Reference value :  6.75039e-06
 Reference value :  6.75053e-06
 Reference value :  6.75071e-06
 Reference value :  6.75096e-06
 Reference value :  6.75140e-06
 Reference value :  6.75180e-06
 Reference value :  6.75227e-06
 Reference value :  6.75290e-06
 Reference value :  6.75353e-06
 Reference value :  6.75414e-06
 Reference value :  6.75472e-06
 Reference value :  6.75532e-06
 Reference value :  6.75607e-06
 Reference value :  6.75690e-06
 Reference value :  6.75857e-06
 Reference value :  6.76079e-06
 Reference value :  6.76460e-06
 Reference value :  6.77222e-06
 Reference value :  6.78745e-06
 Reference value :  6.81793e-06
 Reference value :  6.87887e-06
 Reference value :  7.00000e-06
 Reference value :  7.00001e-06
 Reference value :  7.00003e-06
 Reference value :  7.00007e-06
 Reference value :  7.00010e-06
 Reference value :  7.00011e-06
 Reference value :  7.00012e-06
 Reference value :  7.00016e-06
 Reference value :  7.00022e-06
 Reference value :  7.00035e-06
 Reference value :  7.00057e-06
 Reference value :  7.00090e-06
 Reference value :  7.00136e-06
 Reference value :  7.00183e-06
 Reference value :  7.00230e-06
 Reference value :  7.00281e-06
 Reference value :  7.00339e-06
 Reference value :  7.00394e-06
 Reference value :  7.00445e-06
 Reference value :  7.00492e-06
 Reference value :  7.00545e-06
 Reference value :  7.00617e-06
 Reference value :  7.00691e-06
 Reference value :  7.00840e-06
 Reference value :  7.00990e-06
 Reference value :  7.01119e-06
 Reference value :  7.01226e-06
 Reference value :  7.01328e-06
 Reference value :  7.01435e-06
 Reference value :  7.01535e-06
 Reference value :  7.01638e-06
 Reference value :  7.01753e-06
 Reference value :  7.01917e-06
 Reference value :  7.02090e-06
 Reference value :  7.02414e-06
 Reference value :  7.02781e-06
 Reference value :  7.03214e-06
 Reference value :  7.03522e-06
 Reference value :  7.03850e-06
 Reference value :  7.04187e-06
 Reference value :  7.04564e-06
 Reference value :  7.05124e-06
 Reference value :  7.05788e-06
 Reference value :  7.06457e-06
 Reference value :  7.07213e-06
 Reference value :  7.08109e-06
 Reference value :  7.09773e-06
 Reference value :  7.11963e-06
 Reference value :  7.16325e-06
 Reference value :  7.22109e-06
 Reference value :  7.25010e-06
 Reference value :  7.25011e-06
 Reference value :  7.25013e-06
 Reference value :  7.25017e-06
 Reference value :  7.25020e-06
 Reference value :  7.25021e-06
 Reference value :  7.25022e-06
 Reference value :  7.25026e-06
 Reference value :  7.25032e-06
 Reference value :  7.25039e-06
 Reference value :  7.25053e-06
 Reference value :  7.25069e-06
 Reference value :  7.25095e-06
 Reference value :  7.25137e-06
 Reference value :  7.25178e-06
 Reference value :  7.25223e-06
 Reference value :  7.25285e-06
 Reference value :  7.25346e-06
 Reference value :  7.25406e-06
 Reference value :  7.25468e-06
 Reference value :  7.25530e-06
 Reference value :  7.25619e-06
 Reference value :  7.25743e-06
 Reference value :  7.25910e-06
 Reference value :  7.26161e-06
 Reference value :  7.26589e-06
 Reference value :  7.27446e-06
 Reference value :  7.29158e-06
 Reference value :  7.32583e-06
 Reference value :  7.39433e-06
 Reference value :  7.50000e-06
 Reference value :  7.50001e-06
 Reference value :  7.50003e-06
 Reference value :  7.50007e-06
 Reference value :  7.50010e-06
 Reference value :  7.50011e-06
 Reference value :  7.50012e-06
 Reference value :  7.50016e-06
 Reference value :  7.50022e-06
 Reference value :  7.50035e-06
 Reference value :  7.50057e-06
 Reference value :  7.50090e-06
 Reference value :  7.50136e-06
 Reference value :  7.50183e-06
 Reference value :  7.50230e-06
 Reference value :  7.50281e-06
 Reference value :  7.50336e-06
 Reference value :  7.50393e-06
 Reference value :  7.50455e-06
 Reference value :  7.50533e-06
 Reference value :  7.50589e-06
 Reference value :  7.50657e-06
 Reference value :  7.50749e-06
 Reference value :  7.50833e-06
 Reference value :  7.50925e-06
 Reference value :  7.51032e-06
 Reference value :  7.51150e-06
 Reference value :  7.51385e-06
 Reference value :  7.51719e-06
 Reference value :  7.52336e-06
 Reference value :  7.53422e-06
 Reference value :  7.55279e-06
 Reference value :  7.58994e-06
 Reference value :  7.66424e-06
 Reference value :  7.75010e-06
 Reference value :  7.75011e-06
 Reference value :  7.75013e-06
 Reference value :  7.75017e-06
 Reference value :  7.75020e-06
 Reference value :  7.75021e-06
 Reference value :  7.75022e-06
 Reference value :  7.75026e-06
 Reference value :  7.75032e-06
 Reference value :  7.75039e-06
 Reference value :  7.75053e-06
 Reference value :  7.75071e-06
 Reference value :  7.75096e-06
 Reference value :  7.75140e-06
 Reference value :  7.75180e-06
 Reference value :  7.75227e-06
 Reference value :  7.75290e-06
 Reference value :  7.75353e-06
 Reference value :  7.75413e-06
 Reference value :  7.75471e-06
 Reference value :  7.75530e-06
 Reference value :  7.75607e-06
 Reference value :  7.75689e-06
 Reference value :  7.75770e-06
 Reference value :  7.75857e-06
 Reference value :  7.76002e-06
 Reference value :  7.76152e-06
 Reference value :  7.76421e-06
 Reference value :  7.76834e-06
 Reference value :  7.77660e-06
 Reference value :  7.79311e-06
 Reference value :  7.82539e-06
 Reference value :  7.88994e-06
 Reference value :  8.00000e-06
 Reference value :  8.00001e-06
 Reference value :  8.00003e-06
 Reference value :  8.00007e-06
 Reference value :  8.00010e-06
 Reference value :  8.00011e-06
 Reference value :  8.00012e-06
 Reference value :  8.00016e-06
 Reference value :  8.00022e-06
 Reference value :  8.00035e-06
 Reference value :  8.00057e-06
 Reference value :  8.00090e-06
 Reference value :  8.00136e-06
 Reference value :  8.00183e-06
 Reference value :  8.00230e-06
 Reference value :  8.00281e-06
 Reference value :  8.00338e-06
 Reference value :  8.00394e-06
 Reference value :  8.00445e-06
 Reference value :  8.00492e-06
 Reference value :  8.00545e-06
 Reference value :  8.00621e-06
 Reference value :  8.00693e-06
 Reference value :  8.00778e-06
 Reference value :  8.00862e-06
 Reference value :  8.00944e-06
 Reference value :  8.01033e-06
 Reference value :  8.01129e-06
 Reference value :  8.01320e-06
 Reference value :  8.01568e-06
 Reference value :  8.01821e-06
 Reference value :  8.02152e-06
 Reference value :  8.02667e-06
 Reference value :  8.03292e-06
 Reference value :  8.04375e-06
 Reference value :  8.05284e-06
 Reference value :  8.06153e-06
 Reference value :  8.07118e-06
 Reference value :  8.08001e-06
 Reference value :  8.08926e-06
 Reference value :  8.10776e-06
 Reference value :  8.12547e-06
 Reference value :  8.14326e-06
 Reference value :  8.17656e-06
 Reference value :  8.24317e-06
 Reference value :  8.25010e-06
 Reference value :  8.25011e-06
 Reference value :  8.25013e-06
 Reference value :  8.25017e-06
 Reference value :  8.25020e-06
 Reference value :  8.25021e-06
 Reference value :  8.25022e-06
 Reference value :  8.25026e-06
 Reference value :  8.25032e-06
 Reference value :  8.25045e-06
 Reference value :  8.25058e-06
 Reference value :  8.25079e-06
 Reference value :  8.25119e-06
 Reference value :  8.25160e-06
 Reference value :  8.25199e-06
 Reference value :  8.25255e-06
 Reference value :  8.25326e-06
 Reference value :  8.25400e-06
 Reference value :  8.25475e-06
 Reference value :  8.25570e-06
 Reference value :  8.25669e-06
 Reference value :  8.25813e-06
 Reference value :  8.26007e-06
 Reference value :  8.26281e-06
 Reference value :  8.26765e-06
 Reference value :  8.27450e-06
 Reference value :  8.28596e-06
 Reference value :  8.30381e-06
 Reference value :  8.33646e-06
 Reference value :  8.40177e-06
 Reference value :  8.50000e-06
No. of Data Rows : 1267
ngspice-44 done
