
Note: Compatibility modes selected: hs a


Circuit: ** sch_path: /home/audrey/cace/sar-adc-using-sky130-pdk/runs/run_2025-09-07_20-20-31/parameters/power/run_2/power_consumption.sch

option SCALE: Scale is set to 1e-06 for instance and model parameters
option SCALE: Scale is set to 1e-06 for instance and model parameters
option SCALE: Scale is set to 1e-06 for instance and model parameters
option SCALE: Scale is set to 1e-06 for instance and model parameters
Doing analysis at TEMP = 27.000000 and TNOM = 27.000000

Using KLU as Direct Linear Solver
 Reference value :  0.00000e+00
 Reference value :  1.00000e-12
 Reference value :  2.00000e-12
 Reference value :  4.00000e-12
 Reference value :  8.00000e-12
 Reference value :  1.60000e-11
 Reference value :  3.20000e-11
 Reference value :  6.40000e-11
 Reference value :  1.00000e-10
 Reference value :  1.01503e-10
 Reference value :  1.04508e-10
 Reference value :  1.10520e-10
 Reference value :  1.22542e-10
 Reference value :  1.46587e-10
 Reference value :  1.94677e-10
 Reference value :  2.90857e-10
 Reference value :  4.45344e-10
 Reference value :  7.21191e-10
 Reference value :  1.20325e-09
 Reference value :  1.65765e-09
 Reference value :  2.29669e-09
 Reference value :  3.01795e-09
 Reference value :  3.71784e-09
 Reference value :  4.63091e-09
 Reference value :  5.37210e-09
 Reference value :  6.15624e-09
 Reference value :  6.84650e-09
 Reference value :  7.67889e-09
 Reference value :  8.63420e-09
 Reference value :  9.64645e-09
 Reference value :  1.07873e-08
 Reference value :  1.20599e-08
 Reference value :  1.32463e-08
 Reference value :  1.46513e-08
 Reference value :  1.61475e-08
 Reference value :  1.73088e-08
 Reference value :  1.86318e-08
 Reference value :  2.00286e-08
 Reference value :  2.15561e-08
 Reference value :  2.32678e-08
 Reference value :  2.58754e-08
 Reference value :  2.82971e-08
 Reference value :  3.09531e-08
 Reference value :  3.45622e-08
 Reference value :  3.91897e-08
 Reference value :  4.58123e-08
 Reference value :  5.32089e-08
 Reference value :  6.28811e-08
 Reference value :  7.32532e-08
 Reference value :  8.76798e-08
 Reference value :  1.05489e-07
 Reference value :  1.31941e-07
 Reference value :  1.66246e-07
 Reference value :  2.18500e-07
 Reference value :  2.50100e-07
 Reference value :  2.50110e-07
 Reference value :  2.50130e-07
 Reference value :  2.50170e-07
 Reference value :  2.50200e-07
 Reference value :  2.50201e-07
 Reference value :  2.50202e-07
 Reference value :  2.50204e-07
 Reference value :  2.50208e-07
 Reference value :  2.50216e-07
 Reference value :  2.50233e-07
 Reference value :  2.50266e-07
 Reference value :  2.50333e-07
 Reference value :  2.50417e-07
 Reference value :  2.50584e-07
 Reference value :  2.50760e-07
 Reference value :  2.51086e-07
 Reference value :  2.51475e-07
 Reference value :  2.52029e-07
 Reference value :  2.52635e-07
 Reference value :  2.53377e-07
 Reference value :  2.54351e-07
 Reference value :  2.55146e-07
 Reference value :  2.56068e-07
 Reference value :  2.56908e-07
 Reference value :  2.57885e-07
 Reference value :  2.58796e-07
 Reference value :  2.60402e-07
 Reference value :  2.62551e-07
 Reference value :  2.65003e-07
 Reference value :  2.68908e-07
 Reference value :  2.74479e-07
 Reference value :  2.85622e-07
 Reference value :  3.07906e-07
 Reference value :  3.52476e-07
 Reference value :  4.41615e-07
 Reference value :  5.00000e-07
 Reference value :  5.00010e-07
 Reference value :  5.00030e-07
 Reference value :  5.00070e-07
 Reference value :  5.00100e-07
 Reference value :  5.00104e-07
 Reference value :  5.00113e-07
 Reference value :  5.00130e-07
 Reference value :  5.00164e-07
 Reference value :  5.00231e-07
 Reference value :  5.00367e-07
 Reference value :  5.00555e-07
 Reference value :  5.00932e-07
 Reference value :  5.01447e-07
 Reference value :  5.01998e-07
 Reference value :  5.02543e-07
 Reference value :  5.03229e-07
 Reference value :  5.03912e-07
 Reference value :  5.04747e-07
 Reference value :  5.05611e-07
 Reference value :  5.06517e-07
 Reference value :  5.07777e-07
 Reference value :  5.09106e-07
 Reference value :  5.11680e-07
 Reference value :  5.14160e-07
 Reference value :  5.16162e-07
 Reference value :  5.18392e-07
 Reference value :  5.21017e-07
 Reference value :  5.23865e-07
 Reference value :  5.26514e-07
 Reference value :  5.29227e-07
 Reference value :  5.32272e-07
 Reference value :  5.35515e-07
 Reference value :  5.39438e-07
 Reference value :  5.44299e-07
 Reference value :  5.50513e-07
 Reference value :  5.60508e-07
 Reference value :  5.76460e-07
 Reference value :  6.08365e-07
 Reference value :  6.66973e-07
 Reference value :  7.50100e-07
 Reference value :  7.50110e-07
 Reference value :  7.50130e-07
 Reference value :  7.50170e-07
 Reference value :  7.50200e-07
 Reference value :  7.50201e-07
 Reference value :  7.50202e-07
 Reference value :  7.50205e-07
 Reference value :  7.50211e-07
 Reference value :  7.50223e-07
 Reference value :  7.50247e-07
 Reference value :  7.50295e-07
 Reference value :  7.50390e-07
 Reference value :  7.50581e-07
 Reference value :  7.50959e-07
 Reference value :  7.51482e-07
 Reference value :  7.52141e-07
 Reference value :  7.52795e-07
 Reference value :  7.53543e-07
 Reference value :  7.54595e-07
 Reference value :  7.55347e-07
 Reference value :  7.56200e-07
 Reference value :  7.56956e-07
 Reference value :  7.57804e-07
 Reference value :  7.58836e-07
 Reference value :  7.59967e-07
 Reference value :  7.61132e-07
 Reference value :  7.62857e-07
 Reference value :  7.64653e-07
 Reference value :  7.67239e-07
 Reference value :  7.70416e-07
 Reference value :  7.75075e-07
 Reference value :  7.84393e-07
 Reference value :  7.98733e-07
 Reference value :  8.27414e-07
 Reference value :  8.84775e-07
 Reference value :  9.99497e-07
 Reference value :  1.00000e-06
 Reference value :  1.00001e-06
 Reference value :  1.00002e-06
 Reference value :  1.00005e-06
 Reference value :  1.00010e-06
 Reference value :  1.00011e-06
 Reference value :  1.00012e-06
 Reference value :  1.00014e-06
 Reference value :  1.00019e-06
 Reference value :  1.00029e-06
 Reference value :  1.00044e-06
 Reference value :  1.00070e-06
 Reference value :  1.00123e-06
 Reference value :  1.00184e-06
 Reference value :  1.00263e-06
 Reference value :  1.00335e-06
 Reference value :  1.00406e-06
 Reference value :  1.00490e-06
 Reference value :  1.00568e-06
 Reference value :  1.00652e-06
 Reference value :  1.00743e-06
 Reference value :  1.00830e-06
 Reference value :  1.00922e-06
 Reference value :  1.01019e-06
 Reference value :  1.01142e-06
 Reference value :  1.01319e-06
 Reference value :  1.01556e-06
 Reference value :  1.01720e-06
 Reference value :  1.01904e-06
 Reference value :  1.02080e-06
 Reference value :  1.02249e-06
 Reference value :  1.02422e-06
 Reference value :  1.02579e-06
 Reference value :  1.02743e-06
 Reference value :  1.02934e-06
 Reference value :  1.03154e-06
 Reference value :  1.03413e-06
 Reference value :  1.03813e-06
 Reference value :  1.04390e-06
 Reference value :  1.05313e-06
 Reference value :  1.06831e-06
 Reference value :  1.09292e-06
 Reference value :  1.13466e-06
 Reference value :  1.20410e-06
 Reference value :  1.25010e-06
 Reference value :  1.25011e-06
 Reference value :  1.25013e-06
 Reference value :  1.25017e-06
 Reference value :  1.25020e-06
 Reference value :  1.25020e-06
 Reference value :  1.25020e-06
 Reference value :  1.25021e-06
 Reference value :  1.25021e-06
 Reference value :  1.25022e-06
 Reference value :  1.25025e-06
 Reference value :  1.25029e-06
 Reference value :  1.25039e-06
 Reference value :  1.25058e-06
 Reference value :  1.25091e-06
 Reference value :  1.25146e-06
 Reference value :  1.25209e-06
 Reference value :  1.25276e-06
 Reference value :  1.25350e-06
 Reference value :  1.25453e-06
 Reference value :  1.25528e-06
 Reference value :  1.25614e-06
 Reference value :  1.25703e-06
 Reference value :  1.25795e-06
 Reference value :  1.25926e-06
 Reference value :  1.26111e-06
 Reference value :  1.26330e-06
 Reference value :  1.26653e-06
 Reference value :  1.27081e-06
 Reference value :  1.27937e-06
 Reference value :  1.29649e-06
 Reference value :  1.32683e-06
 Reference value :  1.38750e-06
 Reference value :  1.50000e-06
 Reference value :  1.50001e-06
 Reference value :  1.50003e-06
 Reference value :  1.50007e-06
 Reference value :  1.50010e-06
 Reference value :  1.50010e-06
 Reference value :  1.50011e-06
 Reference value :  1.50013e-06
 Reference value :  1.50016e-06
 Reference value :  1.50023e-06
 Reference value :  1.50037e-06
 Reference value :  1.50055e-06
 Reference value :  1.50091e-06
 Reference value :  1.50142e-06
 Reference value :  1.50197e-06
 Reference value :  1.50252e-06
 Reference value :  1.50322e-06
 Reference value :  1.50386e-06
 Reference value :  1.50464e-06
 Reference value :  1.50547e-06
 Reference value :  1.50637e-06
 Reference value :  1.50760e-06
 Reference value :  1.50884e-06
 Reference value :  1.51017e-06
 Reference value :  1.51167e-06
 Reference value :  1.51316e-06
 Reference value :  1.51463e-06
 Reference value :  1.51620e-06
 Reference value :  1.51780e-06
 Reference value :  1.51960e-06
 Reference value :  1.52320e-06
 Reference value :  1.53040e-06
 Reference value :  1.54254e-06
 Reference value :  1.56683e-06
 Reference value :  1.61541e-06
 Reference value :  1.71256e-06
 Reference value :  1.75010e-06
 Reference value :  1.75011e-06
 Reference value :  1.75013e-06
 Reference value :  1.75017e-06
 Reference value :  1.75020e-06
 Reference value :  1.75020e-06
 Reference value :  1.75020e-06
 Reference value :  1.75021e-06
 Reference value :  1.75021e-06
 Reference value :  1.75022e-06
 Reference value :  1.75025e-06
 Reference value :  1.75029e-06
 Reference value :  1.75039e-06
 Reference value :  1.75058e-06
 Reference value :  1.75091e-06
 Reference value :  1.75146e-06
 Reference value :  1.75209e-06
 Reference value :  1.75276e-06
 Reference value :  1.75350e-06
 Reference value :  1.75452e-06
 Reference value :  1.75529e-06
 Reference value :  1.75617e-06
 Reference value :  1.75693e-06
 Reference value :  1.75778e-06
 Reference value :  1.75879e-06
 Reference value :  1.75992e-06
 Reference value :  1.76105e-06
 Reference value :  1.76279e-06
 Reference value :  1.76452e-06
 Reference value :  1.76711e-06
 Reference value :  1.77015e-06
 Reference value :  1.77475e-06
 Reference value :  1.78386e-06
 Reference value :  1.79622e-06
 Reference value :  1.82079e-06
 Reference value :  1.86994e-06
 Reference value :  1.96499e-06
 Reference value :  2.00000e-06
 Reference value :  2.00001e-06
 Reference value :  2.00003e-06
 Reference value :  2.00007e-06
 Reference value :  2.00010e-06
 Reference value :  2.00010e-06
 Reference value :  2.00011e-06
 Reference value :  2.00013e-06
 Reference value :  2.00016e-06
 Reference value :  2.00023e-06
 Reference value :  2.00037e-06
 Reference value :  2.00055e-06
 Reference value :  2.00091e-06
 Reference value :  2.00142e-06
 Reference value :  2.00197e-06
 Reference value :  2.00256e-06
 Reference value :  2.00320e-06
 Reference value :  2.00388e-06
 Reference value :  2.00465e-06
 Reference value :  2.00549e-06
 Reference value :  2.00626e-06
 Reference value :  2.00706e-06
 Reference value :  2.00786e-06
 Reference value :  2.00873e-06
 Reference value :  2.00964e-06
 Reference value :  2.01095e-06
 Reference value :  2.01227e-06
 Reference value :  2.01416e-06
 Reference value :  2.01622e-06
 Reference value :  2.01828e-06
 Reference value :  2.02023e-06
 Reference value :  2.02190e-06
 Reference value :  2.02369e-06
 Reference value :  2.02546e-06
 Reference value :  2.02725e-06
 Reference value :  2.02946e-06
 Reference value :  2.03151e-06
 Reference value :  2.03471e-06
 Reference value :  2.03898e-06
 Reference value :  2.04753e-06
 Reference value :  2.05930e-06
 Reference value :  2.08045e-06
 Reference value :  2.11520e-06
 Reference value :  2.16675e-06
 Reference value :  2.24292e-06
 Reference value :  2.25010e-06
 Reference value :  2.25011e-06
 Reference value :  2.25013e-06
 Reference value :  2.25017e-06
 Reference value :  2.25020e-06
 Reference value :  2.25020e-06
 Reference value :  2.25020e-06
 Reference value :  2.25021e-06
 Reference value :  2.25021e-06
 Reference value :  2.25022e-06
 Reference value :  2.25025e-06
 Reference value :  2.25030e-06
 Reference value :  2.25039e-06
 Reference value :  2.25059e-06
 Reference value :  2.25093e-06
 Reference value :  2.25147e-06
 Reference value :  2.25211e-06
 Reference value :  2.25277e-06
 Reference value :  2.25351e-06
 Reference value :  2.25454e-06
 Reference value :  2.25528e-06
 Reference value :  2.25613e-06
 Reference value :  2.25702e-06
 Reference value :  2.25795e-06
 Reference value :  2.25924e-06
 Reference value :  2.26110e-06
 Reference value :  2.26327e-06
 Reference value :  2.26652e-06
 Reference value :  2.27077e-06
 Reference value :  2.27928e-06
 Reference value :  2.29630e-06
 Reference value :  2.32622e-06
 Reference value :  2.38607e-06
 Reference value :  2.44683e-06
 Reference value :  2.50000e-06
 Reference value :  2.50001e-06
 Reference value :  2.50003e-06
 Reference value :  2.50007e-06
 Reference value :  2.50010e-06
 Reference value :  2.50010e-06
 Reference value :  2.50011e-06
 Reference value :  2.50013e-06
 Reference value :  2.50016e-06
 Reference value :  2.50023e-06
 Reference value :  2.50037e-06
 Reference value :  2.50054e-06
 Reference value :  2.50090e-06
 Reference value :  2.50141e-06
 Reference value :  2.50196e-06
 Reference value :  2.50251e-06
 Reference value :  2.50321e-06
 Reference value :  2.50386e-06
 Reference value :  2.50463e-06
 Reference value :  2.50546e-06
 Reference value :  2.50636e-06
 Reference value :  2.50759e-06
 Reference value :  2.50882e-06
 Reference value :  2.51016e-06
 Reference value :  2.51166e-06
 Reference value :  2.51313e-06
 Reference value :  2.51457e-06
 Reference value :  2.51611e-06
 Reference value :  2.51766e-06
 Reference value :  2.51943e-06
 Reference value :  2.52297e-06
 Reference value :  2.53006e-06
 Reference value :  2.54246e-06
 Reference value :  2.56727e-06
 Reference value :  2.61688e-06
 Reference value :  2.71612e-06
 Reference value :  2.75010e-06
 Reference value :  2.75011e-06
 Reference value :  2.75013e-06
 Reference value :  2.75017e-06
 Reference value :  2.75020e-06
 Reference value :  2.75020e-06
 Reference value :  2.75020e-06
 Reference value :  2.75021e-06
 Reference value :  2.75021e-06
 Reference value :  2.75022e-06
 Reference value :  2.75025e-06
 Reference value :  2.75029e-06
 Reference value :  2.75039e-06
 Reference value :  2.75058e-06
 Reference value :  2.75091e-06
 Reference value :  2.75146e-06
 Reference value :  2.75208e-06
 Reference value :  2.75276e-06
 Reference value :  2.75349e-06
 Reference value :  2.75452e-06
 Reference value :  2.75528e-06
 Reference value :  2.75616e-06
 Reference value :  2.75692e-06
 Reference value :  2.75777e-06
 Reference value :  2.75878e-06
 Reference value :  2.75991e-06
 Reference value :  2.76102e-06
 Reference value :  2.76278e-06
 Reference value :  2.76447e-06
 Reference value :  2.76709e-06
 Reference value :  2.77007e-06
 Reference value :  2.77467e-06
 Reference value :  2.78320e-06
 Reference value :  2.79484e-06
 Reference value :  2.81669e-06
 Reference value :  2.86039e-06
 Reference value :  2.94088e-06
 Reference value :  3.00000e-06
 Reference value :  3.00001e-06
 Reference value :  3.00003e-06
 Reference value :  3.00007e-06
 Reference value :  3.00010e-06
 Reference value :  3.00010e-06
 Reference value :  3.00011e-06
 Reference value :  3.00013e-06
 Reference value :  3.00016e-06
 Reference value :  3.00023e-06
 Reference value :  3.00037e-06
 Reference value :  3.00055e-06
 Reference value :  3.00091e-06
 Reference value :  3.00142e-06
 Reference value :  3.00197e-06
 Reference value :  3.00255e-06
 Reference value :  3.00320e-06
 Reference value :  3.00388e-06
 Reference value :  3.00465e-06
 Reference value :  3.00549e-06
 Reference value :  3.00634e-06
 Reference value :  3.00712e-06
 Reference value :  3.00794e-06
 Reference value :  3.00883e-06
 Reference value :  3.00973e-06
 Reference value :  3.01099e-06
 Reference value :  3.01249e-06
 Reference value :  3.01478e-06
 Reference value :  3.01631e-06
 Reference value :  3.01804e-06
 Reference value :  3.01985e-06
 Reference value :  3.02129e-06
 Reference value :  3.02272e-06
 Reference value :  3.02443e-06
 Reference value :  3.02605e-06
 Reference value :  3.02756e-06
 Reference value :  3.02952e-06
 Reference value :  3.03181e-06
 Reference value :  3.03444e-06
 Reference value :  3.03870e-06
 Reference value :  3.04368e-06
 Reference value :  3.04861e-06
 Reference value :  3.05410e-06
 Reference value :  3.05845e-06
 Reference value :  3.06186e-06
 Reference value :  3.06480e-06
 Reference value :  3.06797e-06
 Reference value :  3.07281e-06
 Reference value :  3.07905e-06
 Reference value :  3.08896e-06
 Reference value :  3.10188e-06
 Reference value :  3.11541e-06
 Reference value :  3.13563e-06
 Reference value :  3.15784e-06
 Reference value :  3.19426e-06
 Reference value :  3.22670e-06
 Reference value :  3.25010e-06
 Reference value :  3.25011e-06
 Reference value :  3.25013e-06
 Reference value :  3.25017e-06
 Reference value :  3.25020e-06
 Reference value :  3.25020e-06
 Reference value :  3.25020e-06
 Reference value :  3.25021e-06
 Reference value :  3.25021e-06
 Reference value :  3.25022e-06
 Reference value :  3.25025e-06
 Reference value :  3.25029e-06
 Reference value :  3.25039e-06
 Reference value :  3.25058e-06
 Reference value :  3.25091e-06
 Reference value :  3.25146e-06
 Reference value :  3.25208e-06
 Reference value :  3.25275e-06
 Reference value :  3.25349e-06
 Reference value :  3.25452e-06
 Reference value :  3.25530e-06
 Reference value :  3.25620e-06
 Reference value :  3.25709e-06
 Reference value :  3.25803e-06
 Reference value :  3.25941e-06
 Reference value :  3.26114e-06
 Reference value :  3.26342e-06
 Reference value :  3.26666e-06
 Reference value :  3.27109e-06
 Reference value :  3.27997e-06
 Reference value :  3.29709e-06
 Reference value :  3.32665e-06
 Reference value :  3.38577e-06
 Reference value :  3.49360e-06
 Reference value :  3.50000e-06
 Reference value :  3.50001e-06
 Reference value :  3.50003e-06
 Reference value :  3.50007e-06
 Reference value :  3.50010e-06
 Reference value :  3.50010e-06
 Reference value :  3.50011e-06
 Reference value :  3.50013e-06
 Reference value :  3.50016e-06
 Reference value :  3.50023e-06
 Reference value :  3.50037e-06
 Reference value :  3.50054e-06
 Reference value :  3.50090e-06
 Reference value :  3.50141e-06
 Reference value :  3.50196e-06
 Reference value :  3.50256e-06
 Reference value :  3.50320e-06
 Reference value :  3.50388e-06
 Reference value :  3.50466e-06
 Reference value :  3.50550e-06
 Reference value :  3.50636e-06
 Reference value :  3.50758e-06
 Reference value :  3.50880e-06
 Reference value :  3.51008e-06
 Reference value :  3.51148e-06
 Reference value :  3.51303e-06
 Reference value :  3.51462e-06
 Reference value :  3.51606e-06
 Reference value :  3.51760e-06
 Reference value :  3.51937e-06
 Reference value :  3.52266e-06
 Reference value :  3.52769e-06
 Reference value :  3.53774e-06
 Reference value :  3.55785e-06
 Reference value :  3.59808e-06
 Reference value :  3.67852e-06
 Reference value :  3.75010e-06
 Reference value :  3.75011e-06
 Reference value :  3.75013e-06
 Reference value :  3.75017e-06
 Reference value :  3.75020e-06
 Reference value :  3.75020e-06
 Reference value :  3.75020e-06
 Reference value :  3.75021e-06
 Reference value :  3.75021e-06
 Reference value :  3.75022e-06
 Reference value :  3.75025e-06
 Reference value :  3.75029e-06
 Reference value :  3.75039e-06
 Reference value :  3.75058e-06
 Reference value :  3.75091e-06
 Reference value :  3.75146e-06
 Reference value :  3.75208e-06
 Reference value :  3.75275e-06
 Reference value :  3.75349e-06
 Reference value :  3.75452e-06
 Reference value :  3.75529e-06
 Reference value :  3.75617e-06
 Reference value :  3.75693e-06
 Reference value :  3.75778e-06
 Reference value :  3.75880e-06
 Reference value :  3.75993e-06
 Reference value :  3.76221e-06
 Reference value :  3.76468e-06
 Reference value :  3.76876e-06
 Reference value :  3.77409e-06
 Reference value :  3.78477e-06
 Reference value :  3.80611e-06
 Reference value :  3.84775e-06
 Reference value :  3.93102e-06
 Reference value :  4.00000e-06
 Reference value :  4.00001e-06
 Reference value :  4.00003e-06
 Reference value :  4.00007e-06
 Reference value :  4.00010e-06
 Reference value :  4.00010e-06
 Reference value :  4.00011e-06
 Reference value :  4.00013e-06
 Reference value :  4.00016e-06
 Reference value :  4.00023e-06
 Reference value :  4.00037e-06
 Reference value :  4.00054e-06
 Reference value :  4.00090e-06
 Reference value :  4.00141e-06
 Reference value :  4.00196e-06
 Reference value :  4.00256e-06
 Reference value :  4.00320e-06
 Reference value :  4.00389e-06
 Reference value :  4.00466e-06
 Reference value :  4.00549e-06
 Reference value :  4.00639e-06
 Reference value :  4.00728e-06
 Reference value :  4.00807e-06
 Reference value :  4.00902e-06
 Reference value :  4.00993e-06
 Reference value :  4.01114e-06
 Reference value :  4.01287e-06
 Reference value :  4.01552e-06
 Reference value :  4.01795e-06
 Reference value :  4.02011e-06
 Reference value :  4.02179e-06
 Reference value :  4.02337e-06
 Reference value :  4.02503e-06
 Reference value :  4.02676e-06
 Reference value :  4.02860e-06
 Reference value :  4.03064e-06
 Reference value :  4.03371e-06
 Reference value :  4.03696e-06
 Reference value :  4.04346e-06
 Reference value :  4.05367e-06
 Reference value :  4.07027e-06
 Reference value :  4.09511e-06
 Reference value :  4.12635e-06
 Reference value :  4.15689e-06
 Reference value :  4.19527e-06
 Reference value :  4.23674e-06
 Reference value :  4.25010e-06
 Reference value :  4.25011e-06
 Reference value :  4.25013e-06
 Reference value :  4.25017e-06
 Reference value :  4.25020e-06
 Reference value :  4.25020e-06
 Reference value :  4.25020e-06
 Reference value :  4.25021e-06
 Reference value :  4.25021e-06
 Reference value :  4.25022e-06
 Reference value :  4.25025e-06
 Reference value :  4.25029e-06
 Reference value :  4.25039e-06
 Reference value :  4.25058e-06
 Reference value :  4.25091e-06
 Reference value :  4.25146e-06
 Reference value :  4.25208e-06
 Reference value :  4.25275e-06
 Reference value :  4.25349e-06
 Reference value :  4.25451e-06
 Reference value :  4.25529e-06
 Reference value :  4.25618e-06
 Reference value :  4.25707e-06
 Reference value :  4.25801e-06
 Reference value :  4.25939e-06
 Reference value :  4.26111e-06
 Reference value :  4.26341e-06
 Reference value :  4.26661e-06
 Reference value :  4.27104e-06
 Reference value :  4.27990e-06
 Reference value :  4.29679e-06
 Reference value :  4.32611e-06
 Reference value :  4.38477e-06
 Reference value :  4.49048e-06
 Reference value :  4.50000e-06
 Reference value :  4.50001e-06
 Reference value :  4.50003e-06
 Reference value :  4.50007e-06
 Reference value :  4.50010e-06
 Reference value :  4.50010e-06
 Reference value :  4.50011e-06
 Reference value :  4.50013e-06
 Reference value :  4.50016e-06
 Reference value :  4.50023e-06
 Reference value :  4.50037e-06
 Reference value :  4.50054e-06
 Reference value :  4.50090e-06
 Reference value :  4.50141e-06
 Reference value :  4.50196e-06
 Reference value :  4.50256e-06
 Reference value :  4.50320e-06
 Reference value :  4.50388e-06
 Reference value :  4.50466e-06
 Reference value :  4.50550e-06
 Reference value :  4.50636e-06
 Reference value :  4.50757e-06
 Reference value :  4.50879e-06
 Reference value :  4.51000e-06
 Reference value :  4.51131e-06
 Reference value :  4.51278e-06
 Reference value :  4.51416e-06
 Reference value :  4.51559e-06
 Reference value :  4.51708e-06
 Reference value :  4.51881e-06
 Reference value :  4.52222e-06
 Reference value :  4.52729e-06
 Reference value :  4.53743e-06
 Reference value :  4.55771e-06
 Reference value :  4.59827e-06
 Reference value :  4.67938e-06
 Reference value :  4.75010e-06
 Reference value :  4.75011e-06
 Reference value :  4.75013e-06
 Reference value :  4.75017e-06
 Reference value :  4.75020e-06
 Reference value :  4.75020e-06
 Reference value :  4.75020e-06
 Reference value :  4.75021e-06
 Reference value :  4.75021e-06
 Reference value :  4.75022e-06
 Reference value :  4.75025e-06
 Reference value :  4.75029e-06
 Reference value :  4.75039e-06
 Reference value :  4.75058e-06
 Reference value :  4.75091e-06
 Reference value :  4.75146e-06
 Reference value :  4.75208e-06
 Reference value :  4.75275e-06
 Reference value :  4.75349e-06
 Reference value :  4.75451e-06
 Reference value :  4.75527e-06
 Reference value :  4.75615e-06
 Reference value :  4.75691e-06
 Reference value :  4.75776e-06
 Reference value :  4.75877e-06
 Reference value :  4.75990e-06
 Reference value :  4.76215e-06
 Reference value :  4.76461e-06
 Reference value :  4.76866e-06
 Reference value :  4.77390e-06
 Reference value :  4.78440e-06
 Reference value :  4.80539e-06
 Reference value :  4.84587e-06
 Reference value :  4.92683e-06
 Reference value :  5.00000e-06
 Reference value :  5.00001e-06
 Reference value :  5.00003e-06
 Reference value :  5.00007e-06
 Reference value :  5.00010e-06
 Reference value :  5.00010e-06
 Reference value :  5.00011e-06
 Reference value :  5.00013e-06
 Reference value :  5.00016e-06
 Reference value :  5.00023e-06
 Reference value :  5.00037e-06
 Reference value :  5.00054e-06
 Reference value :  5.00090e-06
 Reference value :  5.00141e-06
 Reference value :  5.00196e-06
 Reference value :  5.00255e-06
 Reference value :  5.00321e-06
 Reference value :  5.00390e-06
 Reference value :  5.00467e-06
 Reference value :  5.00551e-06
 Reference value :  5.00641e-06
 Reference value :  5.00733e-06
 Reference value :  5.00809e-06
 Reference value :  5.00897e-06
 Reference value :  5.00996e-06
 Reference value :  5.01110e-06
 Reference value :  5.01297e-06
 Reference value :  5.01547e-06
 Reference value :  5.01804e-06
 Reference value :  5.02024e-06
 Reference value :  5.02198e-06
 Reference value :  5.02361e-06
 Reference value :  5.02530e-06
 Reference value :  5.02705e-06
 Reference value :  5.02903e-06
 Reference value :  5.03107e-06
 Reference value :  5.03410e-06
 Reference value :  5.03809e-06
 Reference value :  5.04474e-06
 Reference value :  5.05596e-06
 Reference value :  5.07330e-06
 Reference value :  5.08932e-06
 Reference value :  5.10723e-06
 Reference value :  5.13030e-06
 Reference value :  5.16498e-06
 Reference value :  5.23153e-06
 Reference value :  5.25010e-06
 Reference value :  5.25011e-06
 Reference value :  5.25013e-06
 Reference value :  5.25017e-06
 Reference value :  5.25020e-06
 Reference value :  5.25020e-06
 Reference value :  5.25020e-06
 Reference value :  5.25021e-06
 Reference value :  5.25021e-06
 Reference value :  5.25022e-06
 Reference value :  5.25025e-06
 Reference value :  5.25029e-06
 Reference value :  5.25039e-06
 Reference value :  5.25058e-06
 Reference value :  5.25091e-06
 Reference value :  5.25146e-06
 Reference value :  5.25208e-06
 Reference value :  5.25275e-06
 Reference value :  5.25349e-06
 Reference value :  5.25451e-06
 Reference value :  5.25529e-06
 Reference value :  5.25619e-06
 Reference value :  5.25708e-06
 Reference value :  5.25803e-06
 Reference value :  5.25943e-06
 Reference value :  5.26115e-06
 Reference value :  5.26345e-06
 Reference value :  5.26668e-06
 Reference value :  5.27115e-06
 Reference value :  5.28010e-06
 Reference value :  5.29688e-06
 Reference value :  5.32610e-06
 Reference value :  5.38400e-06
 Reference value :  5.48777e-06
 Reference value :  5.50000e-06
 Reference value :  5.50001e-06
 Reference value :  5.50003e-06
 Reference value :  5.50007e-06
 Reference value :  5.50010e-06
 Reference value :  5.50010e-06
 Reference value :  5.50011e-06
 Reference value :  5.50013e-06
 Reference value :  5.50016e-06
 Reference value :  5.50023e-06
 Reference value :  5.50037e-06
 Reference value :  5.50054e-06
 Reference value :  5.50090e-06
 Reference value :  5.50141e-06
 Reference value :  5.50196e-06
 Reference value :  5.50256e-06
 Reference value :  5.50320e-06
 Reference value :  5.50388e-06
 Reference value :  5.50466e-06
 Reference value :  5.50550e-06
 Reference value :  5.50641e-06
 Reference value :  5.50760e-06
 Reference value :  5.50886e-06
 Reference value :  5.51006e-06
 Reference value :  5.51131e-06
 Reference value :  5.51274e-06
 Reference value :  5.51410e-06
 Reference value :  5.51551e-06
 Reference value :  5.51702e-06
 Reference value :  5.51877e-06
 Reference value :  5.52210e-06
 Reference value :  5.52706e-06
 Reference value :  5.53699e-06
 Reference value :  5.55685e-06
 Reference value :  5.59563e-06
 Reference value :  5.67318e-06
 Reference value :  5.75010e-06
 Reference value :  5.75011e-06
 Reference value :  5.75013e-06
 Reference value :  5.75017e-06
 Reference value :  5.75020e-06
 Reference value :  5.75020e-06
 Reference value :  5.75020e-06
 Reference value :  5.75021e-06
 Reference value :  5.75021e-06
 Reference value :  5.75022e-06
 Reference value :  5.75025e-06
 Reference value :  5.75029e-06
 Reference value :  5.75039e-06
 Reference value :  5.75058e-06
 Reference value :  5.75091e-06
 Reference value :  5.75146e-06
 Reference value :  5.75208e-06
 Reference value :  5.75275e-06
 Reference value :  5.75349e-06
 Reference value :  5.75451e-06
 Reference value :  5.75528e-06
 Reference value :  5.75617e-06
 Reference value :  5.75693e-06
 Reference value :  5.75778e-06
 Reference value :  5.75879e-06
 Reference value :  5.75992e-06
 Reference value :  5.76218e-06
 Reference value :  5.76465e-06
 Reference value :  5.76871e-06
 Reference value :  5.77402e-06
 Reference value :  5.78463e-06
 Reference value :  5.80584e-06
 Reference value :  5.84666e-06
 Reference value :  5.92830e-06
 Reference value :  6.00000e-06
 Reference value :  6.00001e-06
 Reference value :  6.00003e-06
 Reference value :  6.00007e-06
 Reference value :  6.00010e-06
 Reference value :  6.00010e-06
 Reference value :  6.00011e-06
 Reference value :  6.00013e-06
 Reference value :  6.00016e-06
 Reference value :  6.00023e-06
 Reference value :  6.00037e-06
 Reference value :  6.00054e-06
 Reference value :  6.00090e-06
 Reference value :  6.00141e-06
 Reference value :  6.00196e-06
 Reference value :  6.00256e-06
 Reference value :  6.00321e-06
 Reference value :  6.00389e-06
 Reference value :  6.00466e-06
 Reference value :  6.00549e-06
 Reference value :  6.00635e-06
 Reference value :  6.00725e-06
 Reference value :  6.00801e-06
 Reference value :  6.00886e-06
 Reference value :  6.00987e-06
 Reference value :  6.01099e-06
 Reference value :  6.01289e-06
 Reference value :  6.01535e-06
 Reference value :  6.01810e-06
 Reference value :  6.02034e-06
 Reference value :  6.02216e-06
 Reference value :  6.02388e-06
 Reference value :  6.02580e-06
 Reference value :  6.02755e-06
 Reference value :  6.02972e-06
 Reference value :  6.03191e-06
 Reference value :  6.03459e-06
 Reference value :  6.03849e-06
 Reference value :  6.04405e-06
 Reference value :  6.05301e-06
 Reference value :  6.06139e-06
 Reference value :  6.07080e-06
 Reference value :  6.07728e-06
 Reference value :  6.08356e-06
 Reference value :  6.09135e-06
 Reference value :  6.09878e-06
 Reference value :  6.10603e-06
 Reference value :  6.11497e-06
 Reference value :  6.12570e-06
 Reference value :  6.14209e-06
 Reference value :  6.16235e-06
 Reference value :  6.19305e-06
 Reference value :  6.24065e-06
 Reference value :  6.25010e-06
 Reference value :  6.25011e-06
 Reference value :  6.25013e-06
 Reference value :  6.25017e-06
 Reference value :  6.25020e-06
 Reference value :  6.25020e-06
 Reference value :  6.25020e-06
 Reference value :  6.25021e-06
 Reference value :  6.25021e-06
 Reference value :  6.25022e-06
 Reference value :  6.25025e-06
 Reference value :  6.25030e-06
 Reference value :  6.25039e-06
 Reference value :  6.25059e-06
 Reference value :  6.25093e-06
 Reference value :  6.25147e-06
 Reference value :  6.25210e-06
 Reference value :  6.25276e-06
 Reference value :  6.25351e-06
 Reference value :  6.25453e-06
 Reference value :  6.25527e-06
 Reference value :  6.25611e-06
 Reference value :  6.25700e-06
 Reference value :  6.25793e-06
 Reference value :  6.25922e-06
 Reference value :  6.26109e-06
 Reference value :  6.26325e-06
 Reference value :  6.26648e-06
 Reference value :  6.27073e-06
 Reference value :  6.27922e-06
 Reference value :  6.29620e-06
 Reference value :  6.32517e-06
 Reference value :  6.38311e-06
 Reference value :  6.49231e-06
 Reference value :  6.50000e-06
 Reference value :  6.50001e-06
 Reference value :  6.50003e-06
 Reference value :  6.50007e-06
 Reference value :  6.50010e-06
 Reference value :  6.50010e-06
 Reference value :  6.50011e-06
 Reference value :  6.50013e-06
 Reference value :  6.50016e-06
 Reference value :  6.50023e-06
 Reference value :  6.50037e-06
 Reference value :  6.50054e-06
 Reference value :  6.50090e-06
 Reference value :  6.50141e-06
 Reference value :  6.50196e-06
 Reference value :  6.50252e-06
 Reference value :  6.50322e-06
 Reference value :  6.50387e-06
 Reference value :  6.50464e-06
 Reference value :  6.50546e-06
 Reference value :  6.50632e-06
 Reference value :  6.50757e-06
 Reference value :  6.50876e-06
 Reference value :  6.51013e-06
 Reference value :  6.51167e-06
 Reference value :  6.51309e-06
 Reference value :  6.51454e-06
 Reference value :  6.51606e-06
 Reference value :  6.51787e-06
 Reference value :  6.51988e-06
 Reference value :  6.52351e-06
 Reference value :  6.52882e-06
 Reference value :  6.53868e-06
 Reference value :  6.55691e-06
 Reference value :  6.58999e-06
 Reference value :  6.65450e-06
 Reference value :  6.75010e-06
 Reference value :  6.75011e-06
 Reference value :  6.75013e-06
 Reference value :  6.75017e-06
 Reference value :  6.75020e-06
 Reference value :  6.75020e-06
 Reference value :  6.75020e-06
 Reference value :  6.75021e-06
 Reference value :  6.75021e-06
 Reference value :  6.75022e-06
 Reference value :  6.75025e-06
 Reference value :  6.75029e-06
 Reference value :  6.75039e-06
 Reference value :  6.75058e-06
 Reference value :  6.75091e-06
 Reference value :  6.75146e-06
 Reference value :  6.75208e-06
 Reference value :  6.75275e-06
 Reference value :  6.75349e-06
 Reference value :  6.75451e-06
 Reference value :  6.75528e-06
 Reference value :  6.75617e-06
 Reference value :  6.75693e-06
 Reference value :  6.75778e-06
 Reference value :  6.75879e-06
 Reference value :  6.75992e-06
 Reference value :  6.76105e-06
 Reference value :  6.76279e-06
 Reference value :  6.76452e-06
 Reference value :  6.76711e-06
 Reference value :  6.77014e-06
 Reference value :  6.77474e-06
 Reference value :  6.78378e-06
 Reference value :  6.79605e-06
 Reference value :  6.82033e-06
 Reference value :  6.86889e-06
 Reference value :  6.96053e-06
 Reference value :  7.00000e-06
 Reference value :  7.00001e-06
 Reference value :  7.00003e-06
 Reference value :  7.00007e-06
 Reference value :  7.00010e-06
 Reference value :  7.00010e-06
 Reference value :  7.00011e-06
 Reference value :  7.00013e-06
 Reference value :  7.00016e-06
 Reference value :  7.00023e-06
 Reference value :  7.00037e-06
 Reference value :  7.00055e-06
 Reference value :  7.00091e-06
 Reference value :  7.00142e-06
 Reference value :  7.00197e-06
 Reference value :  7.00256e-06
 Reference value :  7.00321e-06
 Reference value :  7.00389e-06
 Reference value :  7.00465e-06
 Reference value :  7.00549e-06
 Reference value :  7.00626e-06
 Reference value :  7.00707e-06
 Reference value :  7.00782e-06
 Reference value :  7.00870e-06
 Reference value :  7.00958e-06
 Reference value :  7.01074e-06
 Reference value :  7.01241e-06
 Reference value :  7.01427e-06
 Reference value :  7.01574e-06
 Reference value :  7.01732e-06
 Reference value :  7.01874e-06
 Reference value :  7.02035e-06
 Reference value :  7.02169e-06
 Reference value :  7.02304e-06
 Reference value :  7.02461e-06
 Reference value :  7.02611e-06
 Reference value :  7.02755e-06
 Reference value :  7.02936e-06
 Reference value :  7.03166e-06
 Reference value :  7.03411e-06
 Reference value :  7.03831e-06
 Reference value :  7.04388e-06
 Reference value :  7.04953e-06
 Reference value :  7.05780e-06
 Reference value :  7.07252e-06
 Reference value :  7.09591e-06
 Reference value :  7.13529e-06
 Reference value :  7.20608e-06
 Reference value :  7.25010e-06
 Reference value :  7.25011e-06
 Reference value :  7.25013e-06
 Reference value :  7.25017e-06
 Reference value :  7.25020e-06
 Reference value :  7.25020e-06
 Reference value :  7.25020e-06
 Reference value :  7.25021e-06
 Reference value :  7.25021e-06
 Reference value :  7.25022e-06
 Reference value :  7.25025e-06
 Reference value :  7.25029e-06
 Reference value :  7.25039e-06
 Reference value :  7.25058e-06
 Reference value :  7.25092e-06
 Reference value :  7.25146e-06
 Reference value :  7.25209e-06
 Reference value :  7.25276e-06
 Reference value :  7.25350e-06
 Reference value :  7.25452e-06
 Reference value :  7.25526e-06
 Reference value :  7.25612e-06
 Reference value :  7.25700e-06
 Reference value :  7.25793e-06
 Reference value :  7.25924e-06
 Reference value :  7.26104e-06
 Reference value :  7.26324e-06
 Reference value :  7.26641e-06
 Reference value :  7.27070e-06
 Reference value :  7.27927e-06
 Reference value :  7.29612e-06
 Reference value :  7.32493e-06
 Reference value :  7.38254e-06
 Reference value :  7.48913e-06
 Reference value :  7.50000e-06
 Reference value :  7.50001e-06
 Reference value :  7.50003e-06
 Reference value :  7.50007e-06
 Reference value :  7.50010e-06
 Reference value :  7.50010e-06
 Reference value :  7.50011e-06
 Reference value :  7.50013e-06
 Reference value :  7.50016e-06
 Reference value :  7.50023e-06
 Reference value :  7.50037e-06
 Reference value :  7.50055e-06
 Reference value :  7.50090e-06
 Reference value :  7.50141e-06
 Reference value :  7.50195e-06
 Reference value :  7.50250e-06
 Reference value :  7.50320e-06
 Reference value :  7.50384e-06
 Reference value :  7.50462e-06
 Reference value :  7.50545e-06
 Reference value :  7.50636e-06
 Reference value :  7.50760e-06
 Reference value :  7.50883e-06
 Reference value :  7.51021e-06
 Reference value :  7.51177e-06
 Reference value :  7.51321e-06
 Reference value :  7.51460e-06
 Reference value :  7.51609e-06
 Reference value :  7.51770e-06
 Reference value :  7.51952e-06
 Reference value :  7.52291e-06
 Reference value :  7.52782e-06
 Reference value :  7.53763e-06
 Reference value :  7.55609e-06
 Reference value :  7.59120e-06
 Reference value :  7.66141e-06
 Reference value :  7.75010e-06
 Reference value :  7.75011e-06
 Reference value :  7.75013e-06
 Reference value :  7.75017e-06
 Reference value :  7.75020e-06
 Reference value :  7.75020e-06
 Reference value :  7.75020e-06
 Reference value :  7.75021e-06
 Reference value :  7.75021e-06
 Reference value :  7.75022e-06
 Reference value :  7.75025e-06
 Reference value :  7.75029e-06
 Reference value :  7.75039e-06
 Reference value :  7.75058e-06
 Reference value :  7.75092e-06
 Reference value :  7.75146e-06
 Reference value :  7.75209e-06
 Reference value :  7.75276e-06
 Reference value :  7.75350e-06
 Reference value :  7.75452e-06
 Reference value :  7.75527e-06
 Reference value :  7.75614e-06
 Reference value :  7.75688e-06
 Reference value :  7.75772e-06
 Reference value :  7.75873e-06
 Reference value :  7.75986e-06
 Reference value :  7.76098e-06
 Reference value :  7.76275e-06
 Reference value :  7.76444e-06
 Reference value :  7.76705e-06
 Reference value :  7.77005e-06
 Reference value :  7.77465e-06
 Reference value :  7.78339e-06
 Reference value :  7.79528e-06
 Reference value :  7.81781e-06
 Reference value :  7.86286e-06
 Reference value :  7.94719e-06
 Reference value :  8.00000e-06
 Reference value :  8.00001e-06
 Reference value :  8.00003e-06
 Reference value :  8.00007e-06
 Reference value :  8.00010e-06
 Reference value :  8.00010e-06
 Reference value :  8.00011e-06
 Reference value :  8.00013e-06
 Reference value :  8.00016e-06
 Reference value :  8.00023e-06
 Reference value :  8.00037e-06
 Reference value :  8.00055e-06
 Reference value :  8.00091e-06
 Reference value :  8.00142e-06
 Reference value :  8.00196e-06
 Reference value :  8.00255e-06
 Reference value :  8.00320e-06
 Reference value :  8.00387e-06
 Reference value :  8.00465e-06
 Reference value :  8.00548e-06
 Reference value :  8.00633e-06
 Reference value :  8.00713e-06
 Reference value :  8.00789e-06
 Reference value :  8.00878e-06
 Reference value :  8.00967e-06
 Reference value :  8.01084e-06
 Reference value :  8.01252e-06
 Reference value :  8.01445e-06
 Reference value :  8.01598e-06
 Reference value :  8.01759e-06
 Reference value :  8.01915e-06
 Reference value :  8.02090e-06
 Reference value :  8.02277e-06
 Reference value :  8.02491e-06
 Reference value :  8.02699e-06
 Reference value :  8.02953e-06
 Reference value :  8.03298e-06
 Reference value :  8.03938e-06
 Reference value :  8.04741e-06
 Reference value :  8.05483e-06
 Reference value :  8.06001e-06
 Reference value :  8.06568e-06
 Reference value :  8.07200e-06
 Reference value :  8.07891e-06
 Reference value :  8.09123e-06
 Reference value :  8.10454e-06
 Reference value :  8.11656e-06
 Reference value :  8.14059e-06
 Reference value :  8.18714e-06
 Reference value :  8.25010e-06
 Reference value :  8.25011e-06
 Reference value :  8.25013e-06
 Reference value :  8.25017e-06
 Reference value :  8.25020e-06
 Reference value :  8.25020e-06
 Reference value :  8.25020e-06
 Reference value :  8.25021e-06
 Reference value :  8.25021e-06
 Reference value :  8.25022e-06
 Reference value :  8.25025e-06
 Reference value :  8.25030e-06
 Reference value :  8.25039e-06
 Reference value :  8.25059e-06
 Reference value :  8.25098e-06
 Reference value :  8.25148e-06
 Reference value :  8.25216e-06
 Reference value :  8.25280e-06
 Reference value :  8.25356e-06
 Reference value :  8.25460e-06
 Reference value :  8.25559e-06
 Reference value :  8.25697e-06
 Reference value :  8.25860e-06
 Reference value :  8.26009e-06
 Reference value :  8.26262e-06
 Reference value :  8.26531e-06
 Reference value :  8.26976e-06
 Reference value :  8.27659e-06
 Reference value :  8.29027e-06
 Reference value :  8.31761e-06
 Reference value :  8.37000e-06
 Reference value :  8.47478e-06
 Reference value :  8.50000e-06
No. of Data Rows : 1326
ngspice-44 done
