
Note: Compatibility modes selected: hs a


Circuit: ** sch_path: /home/ece/cace/sar-adc-using-sky130-pdk/runs/run_2025-09-13_02-24-55/parameters/sndr/run_0/sndr_enob_fom.sch

option SCALE: Scale is set to 1e-06 for instance and model parameters
option SCALE: Scale is set to 1e-06 for instance and model parameters
option SCALE: Scale is set to 1e-06 for instance and model parameters
option SCALE: Scale is set to 1e-06 for instance and model parameters
Doing analysis at TEMP = 27.000000 and TNOM = 27.000000

Using KLU as Direct Linear Solver
Operating point simulation skipped by 'uic',
  now using transient initial conditions.
 Reference value :  1.00000e-12
 Reference value :  1.07853e-12
 Reference value :  1.63803e-12
 Reference value :  5.88922e-12
 Reference value :  2.97321e-11
 Reference value :  9.60130e-11
 Reference value :  1.03721e-10
 Reference value :  1.55812e-10
 Reference value :  5.59807e-10
 Reference value :  1.15855e-09
 Reference value :  2.13101e-09
 Reference value :  4.58994e-09
 Reference value :  6.77824e-09
 Reference value :  7.53513e-09
 Reference value :  9.06458e-09
 Reference value :  1.04973e-08
 Reference value :  1.18507e-08
 Reference value :  1.61770e-08
 Reference value :  2.43054e-08
 Reference value :  3.71666e-08
 Reference value :  6.21074e-08
 Reference value :  2.50100e-07
 Reference value :  2.50170e-07
 Reference value :  2.50223e-07
 Reference value :  2.50407e-07
 Reference value :  2.51034e-07
 Reference value :  2.52372e-07
 Reference value :  2.53668e-07
 Reference value :  2.55423e-07
 Reference value :  2.58438e-07
 Reference value :  2.72397e-07
 Reference value :  5.00000e-07
 Reference value :  5.00108e-07
 Reference value :  5.00220e-07
 Reference value :  5.00864e-07
 Reference value :  5.02312e-07
 Reference value :  5.03345e-07
 Reference value :  5.05514e-07
 Reference value :  5.07767e-07
 Reference value :  5.10313e-07
 Reference value :  5.14670e-07
 Reference value :  5.20955e-07
 Reference value :  5.59453e-07
 Reference value :  7.50110e-07
 Reference value :  7.50200e-07
 Reference value :  7.50320e-07
 Reference value :  7.51020e-07
 Reference value :  7.52584e-07
 Reference value :  7.53869e-07
 Reference value :  7.55026e-07
 Reference value :  7.56458e-07
 Reference value :  7.61352e-07
 Reference value :  8.13736e-07
 Reference value :  1.00001e-06
 Reference value :  1.00010e-06
 Reference value :  1.00016e-06
 Reference value :  1.00052e-06
 Reference value :  1.00131e-06
 Reference value :  1.00278e-06
 Reference value :  1.00390e-06
 Reference value :  1.00521e-06
 Reference value :  1.00651e-06
 Reference value :  1.00976e-06
 Reference value :  1.01279e-06
 Reference value :  1.01496e-06
 Reference value :  1.01716e-06
 Reference value :  1.02139e-06
 Reference value :  1.04013e-06
 Reference value :  1.13795e-06
 Reference value :  1.25013e-06
 Reference value :  1.25022e-06
 Reference value :  1.25045e-06
 Reference value :  1.25151e-06
 Reference value :  1.25327e-06
 Reference value :  1.25440e-06
 Reference value :  1.25561e-06
 Reference value :  1.25931e-06
 Reference value :  1.27247e-06
 Reference value :  1.48336e-06
 Reference value :  1.50007e-06
 Reference value :  1.50016e-06
 Reference value :  1.50052e-06
 Reference value :  1.50182e-06
 Reference value :  1.50333e-06
 Reference value :  1.50550e-06
 Reference value :  1.50719e-06
 Reference value :  1.50889e-06
 Reference value :  1.51087e-06
 Reference value :  1.52772e-06
 Reference value :  1.75010e-06
 Reference value :  1.75017e-06
 Reference value :  1.75026e-06
 Reference value :  1.75070e-06
 Reference value :  1.75205e-06
 Reference value :  1.75335e-06
 Reference value :  1.75444e-06
 Reference value :  1.75646e-06
 Reference value :  1.76519e-06
 Reference value :  1.87365e-06
 Reference value :  2.00003e-06
 Reference value :  2.00011e-06
 Reference value :  2.00034e-06
 Reference value :  2.00131e-06
 Reference value :  2.00278e-06
 Reference value :  2.00390e-06
 Reference value :  2.00584e-06
 Reference value :  2.00836e-06
 Reference value :  2.00975e-06
 Reference value :  2.01278e-06
 Reference value :  2.01496e-06
 Reference value :  2.01716e-06
 Reference value :  2.02138e-06
 Reference value :  2.04011e-06
 Reference value :  2.22913e-06
 Reference value :  2.25013e-06
 Reference value :  2.25021e-06
 Reference value :  2.25045e-06
 Reference value :  2.25150e-06
 Reference value :  2.25326e-06
 Reference value :  2.25439e-06
 Reference value :  2.25560e-06
 Reference value :  2.25928e-06
 Reference value :  2.27241e-06
 Reference value :  2.37073e-06
 Reference value :  2.50001e-06
 Reference value :  2.50007e-06
 Reference value :  2.50012e-06
 Reference value :  2.50034e-06
 Reference value :  2.50086e-06
 Reference value :  2.50182e-06
 Reference value :  2.50278e-06
 Reference value :  2.50333e-06
 Reference value :  2.50455e-06
 Reference value :  2.50639e-06
 Reference value :  2.50719e-06
 Reference value :  2.50889e-06
 Reference value :  2.51087e-06
 Reference value :  2.51876e-06
 Reference value :  2.58133e-06
 Reference value :  2.75011e-06
 Reference value :  2.75020e-06
 Reference value :  2.75026e-06
 Reference value :  2.75045e-06
 Reference value :  2.75101e-06
 Reference value :  2.75150e-06
 Reference value :  2.75252e-06
 Reference value :  2.75378e-06
 Reference value :  2.75490e-06
 Reference value :  2.75627e-06
 Reference value :  2.75879e-06
 Reference value :  2.76415e-06
 Reference value :  2.78159e-06
 Reference value :  2.85137e-06
 Reference value :  3.00000e-06
 Reference value :  3.00007e-06
 Reference value :  3.00016e-06
 Reference value :  3.00052e-06
 Reference value :  3.00182e-06
 Reference value :  3.00278e-06
 Reference value :  3.00390e-06
 Reference value :  3.00584e-06
 Reference value :  3.00837e-06
 Reference value :  3.01132e-06
 Reference value :  3.01389e-06
 Reference value :  3.01611e-06
 Reference value :  3.01825e-06
 Reference value :  3.02312e-06
 Reference value :  3.03624e-06
 Reference value :  3.04279e-06
 Reference value :  3.05168e-06
 Reference value :  3.06160e-06
 Reference value :  3.07426e-06
 Reference value :  3.10776e-06
 Reference value :  3.15576e-06
 Reference value :  3.25010e-06
 Reference value :  3.25017e-06
 Reference value :  3.25026e-06
 Reference value :  3.25101e-06
 Reference value :  3.25202e-06
 Reference value :  3.25326e-06
 Reference value :  3.25494e-06
 Reference value :  3.25784e-06
 Reference value :  3.27186e-06
 Reference value :  3.50000e-06
 Reference value :  3.50010e-06
 Reference value :  3.50022e-06
 Reference value :  3.50086e-06
 Reference value :  3.50223e-06
 Reference value :  3.50322e-06
 Reference value :  3.50521e-06
 Reference value :  3.50673e-06
 Reference value :  3.50937e-06
 Reference value :  3.51515e-06
 Reference value :  3.59271e-06
 Reference value :  3.75013e-06
 Reference value :  3.75022e-06
 Reference value :  3.75045e-06
 Reference value :  3.75150e-06
 Reference value :  3.75326e-06
 Reference value :  3.75437e-06
 Reference value :  3.75549e-06
 Reference value :  3.75627e-06
 Reference value :  3.75894e-06
 Reference value :  3.76710e-06
 Reference value :  3.79598e-06
 Reference value :  3.96339e-06
 Reference value :  4.00003e-06
 Reference value :  4.00011e-06
 Reference value :  4.00022e-06
 Reference value :  4.00086e-06
 Reference value :  4.00231e-06
 Reference value :  4.00334e-06
 Reference value :  4.00457e-06
 Reference value :  4.00575e-06
 Reference value :  4.00725e-06
 Reference value :  4.00935e-06
 Reference value :  4.01146e-06
 Reference value :  4.01351e-06
 Reference value :  4.01536e-06
 Reference value :  4.01737e-06
 Reference value :  4.01981e-06
 Reference value :  4.02127e-06
 Reference value :  4.02251e-06
 Reference value :  4.02534e-06
 Reference value :  4.02827e-06
 Reference value :  4.03637e-06
 Reference value :  4.07249e-06
 Reference value :  4.10630e-06
 Reference value :  4.19078e-06
 Reference value :  4.25013e-06
 Reference value :  4.25020e-06
 Reference value :  4.25026e-06
 Reference value :  4.25045e-06
 Reference value :  4.25101e-06
 Reference value :  4.25150e-06
 Reference value :  4.25251e-06
 Reference value :  4.25378e-06
 Reference value :  4.25497e-06
 Reference value :  4.25647e-06
 Reference value :  4.25927e-06
 Reference value :  4.28642e-06
 Reference value :  4.50000e-06
 Reference value :  4.50007e-06
 Reference value :  4.50012e-06
 Reference value :  4.50034e-06
 Reference value :  4.50131e-06
 Reference value :  4.50278e-06
 Reference value :  4.50391e-06
 Reference value :  4.50638e-06
 Reference value :  4.50718e-06
 Reference value :  4.50888e-06
 Reference value :  4.51087e-06
 Reference value :  4.52767e-06
 Reference value :  4.65253e-06
 Reference value :  4.75013e-06
 Reference value :  4.75021e-06
 Reference value :  4.75032e-06
 Reference value :  4.75070e-06
 Reference value :  4.75150e-06
 Reference value :  4.75251e-06
 Reference value :  4.75377e-06
 Reference value :  4.75490e-06
 Reference value :  4.75626e-06
 Reference value :  4.76088e-06
 Reference value :  4.80440e-06
 Reference value :  5.00001e-06
 Reference value :  5.00010e-06
 Reference value :  5.00016e-06
 Reference value :  5.00052e-06
 Reference value :  5.00131e-06
 Reference value :  5.00231e-06
 Reference value :  5.00332e-06
 Reference value :  5.00449e-06
 Reference value :  5.00584e-06
 Reference value :  5.00747e-06
 Reference value :  5.00976e-06
 Reference value :  5.01278e-06
 Reference value :  5.01389e-06
 Reference value :  5.01611e-06
 Reference value :  5.01825e-06
 Reference value :  5.02312e-06
 Reference value :  5.03713e-06
 Reference value :  5.04565e-06
 Reference value :  5.05480e-06
 Reference value :  5.07188e-06
 Reference value :  5.10625e-06
 Reference value :  5.12122e-06
 Reference value :  5.13210e-06
 Reference value :  5.14918e-06
 Reference value :  5.19647e-06
 Reference value :  5.25011e-06
 Reference value :  5.25020e-06
 Reference value :  5.25045e-06
 Reference value :  5.25101e-06
 Reference value :  5.25202e-06
 Reference value :  5.25325e-06
 Reference value :  5.25439e-06
 Reference value :  5.25559e-06
 Reference value :  5.25926e-06
 Reference value :  5.28639e-06
 Reference value :  5.50000e-06
 Reference value :  5.50011e-06
 Reference value :  5.50034e-06
 Reference value :  5.50182e-06
 Reference value :  5.50333e-06
 Reference value :  5.50550e-06
 Reference value :  5.50719e-06
 Reference value :  5.50889e-06
 Reference value :  5.51200e-06
 Reference value :  5.54551e-06
 Reference value :  5.75013e-06
 Reference value :  5.75026e-06
 Reference value :  5.75101e-06
 Reference value :  5.75202e-06
 Reference value :  5.75377e-06
 Reference value :  5.75489e-06
 Reference value :  5.75710e-06
 Reference value :  5.76985e-06
 Reference value :  6.00000e-06
 Reference value :  6.00011e-06
 Reference value :  6.00052e-06
 Reference value :  6.00231e-06
 Reference value :  6.00390e-06
 Reference value :  6.00584e-06
 Reference value :  6.00976e-06
 Reference value :  6.01389e-06
 Reference value :  6.01716e-06
 Reference value :  6.02138e-06
 Reference value :  6.03194e-06
 Reference value :  6.03533e-06
 Reference value :  6.04192e-06
 Reference value :  6.04890e-06
 Reference value :  6.06013e-06
 Reference value :  6.10058e-06
 Reference value :  6.19637e-06
 Reference value :  6.22160e-06
 Reference value :  6.25011e-06
 Reference value :  6.25021e-06
 Reference value :  6.25070e-06
 Reference value :  6.25202e-06
 Reference value :  6.25378e-06
 Reference value :  6.25559e-06
 Reference value :  6.26181e-06
 Reference value :  6.30705e-06
 Reference value :  6.50001e-06
 Reference value :  6.50012e-06
 Reference value :  6.50086e-06
 Reference value :  6.50231e-06
 Reference value :  6.50333e-06
 Reference value :  6.50550e-06
 Reference value :  6.50719e-06
 Reference value :  6.50890e-06
 Reference value :  6.51088e-06
 Reference value :  6.52767e-06
 Reference value :  6.75010e-06
 Reference value :  6.75017e-06
 Reference value :  6.75022e-06
 Reference value :  6.75045e-06
 Reference value :  6.75101e-06
 Reference value :  6.75202e-06
 Reference value :  6.75325e-06
 Reference value :  6.75377e-06
 Reference value :  6.75490e-06
 Reference value :  6.75626e-06
 Reference value :  6.76087e-06
 Reference value :  6.85033e-06
 Reference value :  7.00007e-06
 Reference value :  7.00016e-06
 Reference value :  7.00052e-06
 Reference value :  7.00182e-06
 Reference value :  7.00278e-06
 Reference value :  7.00390e-06
 Reference value :  7.00521e-06
 Reference value :  7.00650e-06
 Reference value :  7.00975e-06
 Reference value :  7.01278e-06
 Reference value :  7.01496e-06
 Reference value :  7.01716e-06
 Reference value :  7.01946e-06
 Reference value :  7.02497e-06
 Reference value :  7.03297e-06
 Reference value :  7.04168e-06
 Reference value :  7.05918e-06
 Reference value :  7.10089e-06
 Reference value :  7.23787e-06
 Reference value :  7.25013e-06
 Reference value :  7.25021e-06
 Reference value :  7.25032e-06
 Reference value :  7.25101e-06
 Reference value :  7.25202e-06
 Reference value :  7.25325e-06
 Reference value :  7.25375e-06
 Reference value :  7.25493e-06
 Reference value :  7.25780e-06
 Reference value :  7.27166e-06
 Reference value :  7.36188e-06
 Reference value :  7.50003e-06
 Reference value :  7.50011e-06
 Reference value :  7.50022e-06
 Reference value :  7.50052e-06
 Reference value :  7.50131e-06
 Reference value :  7.50223e-06
 Reference value :  7.50322e-06
 Reference value :  7.50442e-06
 Reference value :  7.50604e-06
 Reference value :  7.50746e-06
 Reference value :  7.50937e-06
 Reference value :  7.51270e-06
 Reference value :  7.55402e-06
 Reference value :  7.75011e-06
 Reference value :  7.75020e-06
 Reference value :  7.75032e-06
 Reference value :  7.75101e-06
 Reference value :  7.75202e-06
 Reference value :  7.75325e-06
 Reference value :  7.75436e-06
 Reference value :  7.75548e-06
 Reference value :  7.75711e-06
 Reference value :  7.76016e-06
 Reference value :  7.77303e-06
 Reference value :  7.86583e-06
 Reference value :  8.00001e-06
 Reference value :  8.00010e-06
 Reference value :  8.00022e-06
 Reference value :  8.00086e-06
 Reference value :  8.00231e-06
 Reference value :  8.00334e-06
 Reference value :  8.00457e-06
 Reference value :  8.00575e-06
 Reference value :  8.00725e-06
 Reference value :  8.00890e-06
 Reference value :  8.00965e-06
 Reference value :  8.01157e-06
 Reference value :  8.01427e-06
 Reference value :  8.02018e-06
 Reference value :  8.02460e-06
 Reference value :  8.02912e-06
 Reference value :  8.04263e-06
 Reference value :  8.07848e-06
 Reference value :  8.25010e-06
 Reference value :  8.25017e-06
 Reference value :  8.25022e-06
 Reference value :  8.25045e-06
 Reference value :  8.25150e-06
 Reference value :  8.25251e-06
 Reference value :  8.25400e-06
 Reference value :  8.25602e-06
 Reference value :  8.25853e-06
 Reference value :  8.26794e-06
 Reference value :  8.33462e-06
 Reference value :  8.50003e-06
 Reference value :  8.50012e-06
 Reference value :  8.50060e-06
 Reference value :  8.50143e-06
 Reference value :  8.50297e-06
 Reference value :  8.50424e-06
 Reference value :  8.50563e-06
 Reference value :  8.50849e-06
 Reference value :  8.51987e-06
 Reference value :  8.52616e-06
 Reference value :  8.53071e-06
 Reference value :  8.53821e-06
 Reference value :  8.54674e-06
 Reference value :  8.55422e-06
 Reference value :  8.57182e-06
 Reference value :  8.62865e-06
 Reference value :  8.75011e-06
 Reference value :  8.75020e-06
 Reference value :  8.75022e-06
 Reference value :  8.75045e-06
 Reference value :  8.75101e-06
 Reference value :  8.75150e-06
 Reference value :  8.75251e-06
 Reference value :  8.75376e-06
 Reference value :  8.75492e-06
 Reference value :  8.75753e-06
 Reference value :  8.76494e-06
 Reference value :  8.81268e-06
 Reference value :  9.00001e-06
 Reference value :  9.00010e-06
 Reference value :  9.00016e-06
 Reference value :  9.00052e-06
 Reference value :  9.00182e-06
 Reference value :  9.00332e-06
 Reference value :  9.00454e-06
 Reference value :  9.00764e-06
 Reference value :  9.01145e-06
 Reference value :  9.01476e-06
 Reference value :  9.02113e-06
 Reference value :  9.04194e-06
 Reference value :  9.14514e-06
 Reference value :  9.25013e-06
 Reference value :  9.25021e-06
 Reference value :  9.25045e-06
 Reference value :  9.25150e-06
 Reference value :  9.25325e-06
 Reference value :  9.25436e-06
 Reference value :  9.25548e-06
 Reference value :  9.25876e-06
 Reference value :  9.35016e-06
 Reference value :  9.50003e-06
 Reference value :  9.50016e-06
 Reference value :  9.50086e-06
 Reference value :  9.50231e-06
 Reference value :  9.50332e-06
 Reference value :  9.50521e-06
 Reference value :  9.50650e-06
 Reference value :  9.50977e-06
 Reference value :  9.51389e-06
 Reference value :  9.51709e-06
 Reference value :  9.52252e-06
 Reference value :  9.56875e-06
 Reference value :  9.75013e-06
 Reference value :  9.75022e-06
 Reference value :  9.75070e-06
 Reference value :  9.75150e-06
 Reference value :  9.75325e-06
 Reference value :  9.75497e-06
 Reference value :  9.76183e-06
 Reference value :  1.00000e-05
 Reference value :  1.00001e-05
 Reference value :  1.00003e-05
 Reference value :  1.00018e-05
 Reference value :  1.00033e-05
 Reference value :  1.00055e-05
 Reference value :  1.00072e-05
 Reference value :  1.00089e-05
 Reference value :  1.00120e-05
 Reference value :  1.00455e-05
 Reference value :  1.02501e-05
 Reference value :  1.02502e-05
 Reference value :  1.02503e-05
 Reference value :  1.02510e-05
 Reference value :  1.02520e-05
 Reference value :  1.02533e-05
 Reference value :  1.02544e-05
 Reference value :  1.02555e-05
 Reference value :  1.02588e-05
 Reference value :  1.02814e-05
 Reference value :  1.05000e-05
 Reference value :  1.05001e-05
 Reference value :  1.05001e-05
 Reference value :  1.05003e-05
 Reference value :  1.05013e-05
 Reference value :  1.05028e-05
 Reference value :  1.05039e-05
 Reference value :  1.05052e-05
 Reference value :  1.05065e-05
 Reference value :  1.05098e-05
 Reference value :  1.05128e-05
 Reference value :  1.05139e-05
 Reference value :  1.05161e-05
 Reference value :  1.05171e-05
 Reference value :  1.05192e-05
 Reference value :  1.05252e-05
 Reference value :  1.05473e-05
 Reference value :  1.06684e-05
 Reference value :  1.07501e-05
 Reference value :  1.07502e-05
 Reference value :  1.07503e-05
 Reference value :  1.07510e-05
 Reference value :  1.07520e-05
 Reference value :  1.07538e-05
 Reference value :  1.07550e-05
 Reference value :  1.07577e-05
 Reference value :  1.07724e-05
 Reference value :  1.09838e-05
 Reference value :  1.10000e-05
 Reference value :  1.10001e-05
 Reference value :  1.10002e-05
 Reference value :  1.10009e-05
 Reference value :  1.10023e-05
 Reference value :  1.10033e-05
 Reference value :  1.10046e-05
 Reference value :  1.10064e-05
 Reference value :  1.10081e-05
 Reference value :  1.10098e-05
 Reference value :  1.10142e-05
 Reference value :  1.10811e-05
 Reference value :  1.12501e-05
 Reference value :  1.12502e-05
 Reference value :  1.12504e-05
 Reference value :  1.12515e-05
 Reference value :  1.12533e-05
 Reference value :  1.12544e-05
 Reference value :  1.12555e-05
 Reference value :  1.12571e-05
 Reference value :  1.12641e-05
 Reference value :  1.13043e-05
 Reference value :  1.15000e-05
 Reference value :  1.15001e-05
 Reference value :  1.15001e-05
 Reference value :  1.15003e-05
 Reference value :  1.15013e-05
 Reference value :  1.15023e-05
 Reference value :  1.15033e-05
 Reference value :  1.15045e-05
 Reference value :  1.15058e-05
 Reference value :  1.15084e-05
 Reference value :  1.15098e-05
 Reference value :  1.15128e-05
 Reference value :  1.15150e-05
 Reference value :  1.15172e-05
 Reference value :  1.15214e-05
 Reference value :  1.15304e-05
 Reference value :  1.15441e-05
 Reference value :  1.15543e-05
 Reference value :  1.15722e-05
 Reference value :  1.16235e-05
 Reference value :  1.17501e-05
 Reference value :  1.17502e-05
 Reference value :  1.17502e-05
 Reference value :  1.17504e-05
 Reference value :  1.17515e-05
 Reference value :  1.17533e-05
 Reference value :  1.17538e-05
 Reference value :  1.17549e-05
 Reference value :  1.17578e-05
 Reference value :  1.17717e-05
 Reference value :  1.18626e-05
 Reference value :  1.20000e-05
 Reference value :  1.20001e-05
 Reference value :  1.20002e-05
 Reference value :  1.20009e-05
 Reference value :  1.20017e-05
 Reference value :  1.20032e-05
 Reference value :  1.20044e-05
 Reference value :  1.20060e-05
 Reference value :  1.20067e-05
 Reference value :  1.20084e-05
 Reference value :  1.20115e-05
 Reference value :  1.20185e-05
 Reference value :  1.20539e-05
 Reference value :  1.22501e-05
 Reference value :  1.22502e-05
 Reference value :  1.22503e-05
 Reference value :  1.22510e-05
 Reference value :  1.22520e-05
 Reference value :  1.22533e-05
 Reference value :  1.22538e-05
 Reference value :  1.22549e-05
 Reference value :  1.22563e-05
 Reference value :  1.22579e-05
 Reference value :  1.22617e-05
 Reference value :  1.22731e-05
 Reference value :  1.23674e-05
 Reference value :  1.25000e-05
 Reference value :  1.25001e-05
 Reference value :  1.25002e-05
 Reference value :  1.25009e-05
 Reference value :  1.25018e-05
 Reference value :  1.25028e-05
 Reference value :  1.25033e-05
 Reference value :  1.25046e-05
 Reference value :  1.25058e-05
 Reference value :  1.25073e-05
 Reference value :  1.25093e-05
 Reference value :  1.25115e-05
 Reference value :  1.25135e-05
 Reference value :  1.25153e-05
 Reference value :  1.25173e-05
 Reference value :  1.25194e-05
 Reference value :  1.25228e-05
 Reference value :  1.25246e-05
 Reference value :  1.25260e-05
 Reference value :  1.25288e-05
 Reference value :  1.25349e-05
 Reference value :  1.25516e-05
 Reference value :  1.26020e-05
 Reference value :  1.27475e-05
 Reference value :  1.27501e-05
 Reference value :  1.27502e-05
 Reference value :  1.27504e-05
 Reference value :  1.27515e-05
 Reference value :  1.27533e-05
 Reference value :  1.27544e-05
 Reference value :  1.27556e-05
 Reference value :  1.27593e-05
 Reference value :  1.27865e-05
 Reference value :  1.29835e-05
 Reference value :  1.30000e-05
 Reference value :  1.30001e-05
 Reference value :  1.30002e-05
 Reference value :  1.30009e-05
 Reference value :  1.30023e-05
 Reference value :  1.30033e-05
 Reference value :  1.30055e-05
 Reference value :  1.30072e-05
 Reference value :  1.30089e-05
 Reference value :  1.30109e-05
 Reference value :  1.30276e-05
 Reference value :  1.31523e-05
 Reference value :  1.32501e-05
 Reference value :  1.32502e-05
 Reference value :  1.32504e-05
 Reference value :  1.32515e-05
 Reference value :  1.32533e-05
 Reference value :  1.32544e-05
 Reference value :  1.32563e-05
 Reference value :  1.32813e-05
 Reference value :  1.35000e-05
 Reference value :  1.35002e-05
 Reference value :  1.35009e-05
 Reference value :  1.35028e-05
 Reference value :  1.35045e-05
 Reference value :  1.35058e-05
 Reference value :  1.35084e-05
 Reference value :  1.35098e-05
 Reference value :  1.35113e-05
 Reference value :  1.35139e-05
 Reference value :  1.35161e-05
 Reference value :  1.35171e-05
 Reference value :  1.35208e-05
 Reference value :  1.35298e-05
 Reference value :  1.35347e-05
 Reference value :  1.35421e-05
 Reference value :  1.35468e-05
 Reference value :  1.35578e-05
 Reference value :  1.35693e-05
 Reference value :  1.36034e-05
 Reference value :  1.36246e-05
 Reference value :  1.36400e-05
 Reference value :  1.36511e-05
 Reference value :  1.36867e-05
 Reference value :  1.37501e-05
 Reference value :  1.37502e-05
 Reference value :  1.37504e-05
 Reference value :  1.37515e-05
 Reference value :  1.37525e-05
 Reference value :  1.37538e-05
 Reference value :  1.37550e-05
 Reference value :  1.37593e-05
 Reference value :  1.38147e-05
 Reference value :  1.40000e-05
 Reference value :  1.40001e-05
 Reference value :  1.40002e-05
 Reference value :  1.40003e-05
 Reference value :  1.40013e-05
 Reference value :  1.40023e-05
 Reference value :  1.40033e-05
 Reference value :  1.40046e-05
 Reference value :  1.40064e-05
 Reference value :  1.40072e-05
 Reference value :  1.40089e-05
 Reference value :  1.40109e-05
 Reference value :  1.40187e-05
 Reference value :  1.41524e-05
 Reference value :  1.42501e-05
 Reference value :  1.42502e-05
 Reference value :  1.42503e-05
 Reference value :  1.42507e-05
 Reference value :  1.42515e-05
 Reference value :  1.42533e-05
 Reference value :  1.42538e-05
 Reference value :  1.42549e-05
 Reference value :  1.42563e-05
 Reference value :  1.42609e-05
 Reference value :  1.43043e-05
 Reference value :  1.45000e-05
 Reference value :  1.45001e-05
 Reference value :  1.45003e-05
 Reference value :  1.45013e-05
 Reference value :  1.45028e-05
 Reference value :  1.45039e-05
 Reference value :  1.45052e-05
 Reference value :  1.45058e-05
 Reference value :  1.45075e-05
 Reference value :  1.45098e-05
 Reference value :  1.45139e-05
 Reference value :  1.45171e-05
 Reference value :  1.45209e-05
 Reference value :  1.45328e-05
 Reference value :  1.45386e-05
 Reference value :  1.45442e-05
 Reference value :  1.45582e-05
 Reference value :  1.45910e-05
 Reference value :  1.47076e-05
 Reference value :  1.47501e-05
 Reference value :  1.47502e-05
 Reference value :  1.47504e-05
 Reference value :  1.47515e-05
 Reference value :  1.47532e-05
 Reference value :  1.47549e-05
 Reference value :  1.47652e-05
 Reference value :  1.49665e-05
 Reference value :  1.50001e-05
 Reference value :  1.50002e-05
 Reference value :  1.50009e-05
 Reference value :  1.50022e-05
 Reference value :  1.50038e-05
 Reference value :  1.50060e-05
 Reference value :  1.50084e-05
 Reference value :  1.50114e-05
 Reference value :  1.50248e-05
 Reference value :  1.50921e-05
 Reference value :  1.52501e-05
 Reference value :  1.52502e-05
 Reference value :  1.52503e-05
 Reference value :  1.52510e-05
 Reference value :  1.52520e-05
 Reference value :  1.52538e-05
 Reference value :  1.52555e-05
 Reference value :  1.52579e-05
 Reference value :  1.52641e-05
 Reference value :  1.52959e-05
 Reference value :  1.55000e-05
 Reference value :  1.55006e-05
 Reference value :  1.55026e-05
 Reference value :  1.55038e-05
 Reference value :  1.55049e-05
 Reference value :  1.55059e-05
 Reference value :  1.55081e-05
 Reference value :  1.55103e-05
 Reference value :  1.55124e-05
 Reference value :  1.55144e-05
 Reference value :  1.55164e-05
 Reference value :  1.55186e-05
 Reference value :  1.55236e-05
 Reference value :  1.55378e-05
 Reference value :  1.56654e-05
 Reference value :  1.57502e-05
 Reference value :  1.57503e-05
 Reference value :  1.57507e-05
 Reference value :  1.57515e-05
 Reference value :  1.57532e-05
 Reference value :  1.57544e-05
 Reference value :  1.57556e-05
 Reference value :  1.57593e-05
 Reference value :  1.57865e-05
 Reference value :  1.60000e-05
 Reference value :  1.60001e-05
 Reference value :  1.60001e-05
 Reference value :  1.60003e-05
 Reference value :  1.60009e-05
 Reference value :  1.60018e-05
 Reference value :  1.60028e-05
 Reference value :  1.60033e-05
 Reference value :  1.60045e-05
 Reference value :  1.60064e-05
 Reference value :  1.60080e-05
 Reference value :  1.60098e-05
 Reference value :  1.60142e-05
 Reference value :  1.61517e-05
 Reference value :  1.62502e-05
 Reference value :  1.62503e-05
 Reference value :  1.62515e-05
 Reference value :  1.62532e-05
 Reference value :  1.62544e-05
 Reference value :  1.62555e-05
 Reference value :  1.62571e-05
 Reference value :  1.62698e-05
 Reference value :  1.64405e-05
 Reference value :  1.65001e-05
 Reference value :  1.65002e-05
 Reference value :  1.65009e-05
 Reference value :  1.65023e-05
 Reference value :  1.65033e-05
 Reference value :  1.65052e-05
 Reference value :  1.65065e-05
 Reference value :  1.65092e-05
 Reference value :  1.65178e-05
 Reference value :  1.67501e-05
 Reference value :  1.67502e-05
 Reference value :  1.67503e-05
 Reference value :  1.67515e-05
 Reference value :  1.67532e-05
 Reference value :  1.67560e-05
 Reference value :  1.67632e-05
 Reference value :  1.69111e-05
 Reference value :  1.70015e-05
 Reference value :  1.70060e-05
 Reference value :  1.70134e-05
 Reference value :  1.70255e-05
 Reference value :  1.70290e-05
 Reference value :  1.70341e-05
 Reference value :  1.70376e-05
 Reference value :  1.70479e-05
 Reference value :  1.70747e-05
 Reference value :  1.72195e-05
 Reference value :  1.72502e-05
 Reference value :  1.72504e-05
 Reference value :  1.72515e-05
 Reference value :  1.72532e-05
 Reference value :  1.72543e-05
 Reference value :  1.72555e-05
 Reference value :  1.72591e-05
 Reference value :  1.72850e-05
 Reference value :  1.75000e-05
 Reference value :  1.75001e-05
 Reference value :  1.75002e-05
 Reference value :  1.75005e-05
 Reference value :  1.75018e-05
 Reference value :  1.75033e-05
 Reference value :  1.75055e-05
 Reference value :  1.75076e-05
 Reference value :  1.75102e-05
 Reference value :  1.75133e-05
 Reference value :  1.75148e-05
 Reference value :  1.75213e-05
 Reference value :  1.75425e-05
 Reference value :  1.76497e-05
 Reference value :  1.77501e-05
 Reference value :  1.77502e-05
 Reference value :  1.77503e-05
 Reference value :  1.77507e-05
 Reference value :  1.77515e-05
 Reference value :  1.77533e-05
 Reference value :  1.77538e-05
 Reference value :  1.77549e-05
 Reference value :  1.77563e-05
 Reference value :  1.77609e-05
 Reference value :  1.78501e-05
 Reference value :  1.80010e-05
 Reference value :  1.80040e-05
 Reference value :  1.80059e-05
 Reference value :  1.80076e-05
 Reference value :  1.80113e-05
 Reference value :  1.80125e-05
 Reference value :  1.80150e-05
 Reference value :  1.80162e-05
 Reference value :  1.80173e-05
 Reference value :  1.80197e-05
 Reference value :  1.80262e-05
 Reference value :  1.80522e-05
 Reference value :  1.81859e-05
 Reference value :  1.82501e-05
 Reference value :  1.82502e-05
 Reference value :  1.82503e-05
 Reference value :  1.82510e-05
 Reference value :  1.82520e-05
 Reference value :  1.82532e-05
 Reference value :  1.82537e-05
 Reference value :  1.82549e-05
 Reference value :  1.82575e-05
 Reference value :  1.82721e-05
 Reference value :  1.84848e-05
 Reference value :  1.85001e-05
 Reference value :  1.85002e-05
 Reference value :  1.85013e-05
 Reference value :  1.85033e-05
 Reference value :  1.85055e-05
 Reference value :  1.85072e-05
 Reference value :  1.85089e-05
 Reference value :  1.85109e-05
 Reference value :  1.85187e-05
 Reference value :  1.86514e-05
 Reference value :  1.87501e-05
 Reference value :  1.87502e-05
 Reference value :  1.87503e-05
 Reference value :  1.87510e-05
 Reference value :  1.87520e-05
 Reference value :  1.87533e-05
 Reference value :  1.87538e-05
 Reference value :  1.87549e-05
 Reference value :  1.87563e-05
 Reference value :  1.87609e-05
 Reference value :  1.88040e-05
 Reference value :  1.90000e-05
 Reference value :  1.90001e-05
 Reference value :  1.90002e-05
 Reference value :  1.90009e-05
 Reference value :  1.90028e-05
 Reference value :  1.90045e-05
 Reference value :  1.90058e-05
 Reference value :  1.90098e-05
 Reference value :  1.90128e-05
 Reference value :  1.90150e-05
 Reference value :  1.90172e-05
 Reference value :  1.90195e-05
 Reference value :  1.90266e-05
 Reference value :  1.90829e-05
 Reference value :  1.92501e-05
 Reference value :  1.92502e-05
 Reference value :  1.92502e-05
 Reference value :  1.92504e-05
 Reference value :  1.92510e-05
 Reference value :  1.92520e-05
 Reference value :  1.92533e-05
 Reference value :  1.92538e-05
 Reference value :  1.92550e-05
 Reference value :  1.92577e-05
 Reference value :  1.92864e-05
 Reference value :  1.95003e-05
 Reference value :  1.95015e-05
 Reference value :  1.95028e-05
 Reference value :  1.95055e-05
 Reference value :  1.95094e-05
 Reference value :  1.95116e-05
 Reference value :  1.95247e-05
 Reference value :  1.96427e-05
 Reference value :  1.97502e-05
 Reference value :  1.97503e-05
 Reference value :  1.97515e-05
 Reference value :  1.97532e-05
 Reference value :  1.97544e-05
 Reference value :  1.97555e-05
 Reference value :  1.97588e-05
 Reference value :  1.98040e-05
 Reference value :  2.00000e-05
 Reference value :  2.00001e-05
 Reference value :  2.00003e-05
 Reference value :  2.00013e-05
 Reference value :  2.00028e-05
 Reference value :  2.00045e-05
 Reference value :  2.00065e-05
 Reference value :  2.00098e-05
 Reference value :  2.00128e-05
 Reference value :  2.00161e-05
 Reference value :  2.00195e-05
 Reference value :  2.00372e-05
 Reference value :  2.00539e-05
 Reference value :  2.00646e-05
 Reference value :  2.01012e-05
 Reference value :  2.01888e-05
 Reference value :  2.02501e-05
 Reference value :  2.02502e-05
 Reference value :  2.02503e-05
 Reference value :  2.02510e-05
 Reference value :  2.02525e-05
 Reference value :  2.02538e-05
 Reference value :  2.02549e-05
 Reference value :  2.02578e-05
 Reference value :  2.02717e-05
 Reference value :  2.04663e-05
 Reference value :  2.05006e-05
 Reference value :  2.05023e-05
 Reference value :  2.05035e-05
 Reference value :  2.05047e-05
 Reference value :  2.05065e-05
 Reference value :  2.05095e-05
 Reference value :  2.05117e-05
 Reference value :  2.05254e-05
 Reference value :  2.06918e-05
 Reference value :  2.07501e-05
 Reference value :  2.07502e-05
 Reference value :  2.07504e-05
 Reference value :  2.07515e-05
 Reference value :  2.07525e-05
 Reference value :  2.07538e-05
 Reference value :  2.07549e-05
 Reference value :  2.07562e-05
 Reference value :  2.07589e-05
 Reference value :  2.07639e-05
 Reference value :  2.07942e-05
 Reference value :  2.10000e-05
 Reference value :  2.10001e-05
 Reference value :  2.10002e-05
 Reference value :  2.10009e-05
 Reference value :  2.10028e-05
 Reference value :  2.10039e-05
 Reference value :  2.10052e-05
 Reference value :  2.10064e-05
 Reference value :  2.10093e-05
 Reference value :  2.10115e-05
 Reference value :  2.10135e-05
 Reference value :  2.10154e-05
 Reference value :  2.10186e-05
 Reference value :  2.10238e-05
 Reference value :  2.10260e-05
 Reference value :  2.10308e-05
 Reference value :  2.10375e-05
 Reference value :  2.10709e-05
 Reference value :  2.11049e-05
 Reference value :  2.12501e-05
 Reference value :  2.12502e-05
 Reference value :  2.12502e-05
 Reference value :  2.12504e-05
 Reference value :  2.12515e-05
 Reference value :  2.12533e-05
 Reference value :  2.12544e-05
 Reference value :  2.12556e-05
 Reference value :  2.12618e-05
 Reference value :  2.13146e-05
 Reference value :  2.15000e-05
 Reference value :  2.15001e-05
 Reference value :  2.15002e-05
 Reference value :  2.15005e-05
 Reference value :  2.15018e-05
 Reference value :  2.15028e-05
 Reference value :  2.15039e-05
 Reference value :  2.15064e-05
 Reference value :  2.15072e-05
 Reference value :  2.15089e-05
 Reference value :  2.15109e-05
 Reference value :  2.15276e-05
 Reference value :  2.16523e-05
 Reference value :  2.17501e-05
 Reference value :  2.17502e-05
 Reference value :  2.17504e-05
 Reference value :  2.17515e-05
 Reference value :  2.17533e-05
 Reference value :  2.17544e-05
 Reference value :  2.17555e-05
 Reference value :  2.17571e-05
 Reference value :  2.17641e-05
 Reference value :  2.18502e-05
 Reference value :  2.20011e-05
 Reference value :  2.20043e-05
 Reference value :  2.20063e-05
 Reference value :  2.20081e-05
 Reference value :  2.20105e-05
 Reference value :  2.20135e-05
 Reference value :  2.20146e-05
 Reference value :  2.20168e-05
 Reference value :  2.20179e-05
 Reference value :  2.20202e-05
 Reference value :  2.20220e-05
 Reference value :  2.20329e-05
 Reference value :  2.20387e-05
 Reference value :  2.20429e-05
 Reference value :  2.20517e-05
 Reference value :  2.20622e-05
 Reference value :  2.20973e-05
 Reference value :  2.21333e-05
 Reference value :  2.21790e-05
 Reference value :  2.21992e-05
 Reference value :  2.22324e-05
 Reference value :  2.22501e-05
 Reference value :  2.22502e-05
 Reference value :  2.22503e-05
 Reference value :  2.22510e-05
 Reference value :  2.22520e-05
 Reference value :  2.22532e-05
 Reference value :  2.22543e-05
 Reference value :  2.22554e-05
 Reference value :  2.22589e-05
 Reference value :  2.22709e-05
 Reference value :  2.23621e-05
 Reference value :  2.25000e-05
 Reference value :  2.25001e-05
 Reference value :  2.25002e-05
 Reference value :  2.25005e-05
 Reference value :  2.25013e-05
 Reference value :  2.25023e-05
 Reference value :  2.25033e-05
 Reference value :  2.25045e-05
 Reference value :  2.25064e-05
 Reference value :  2.25072e-05
 Reference value :  2.25089e-05
 Reference value :  2.25109e-05
 Reference value :  2.25187e-05
 Reference value :  2.26525e-05
 Reference value :  2.27501e-05
 Reference value :  2.27502e-05
 Reference value :  2.27504e-05
 Reference value :  2.27510e-05
 Reference value :  2.27520e-05
 Reference value :  2.27538e-05
 Reference value :  2.27555e-05
 Reference value :  2.27571e-05
 Reference value :  2.27698e-05
 Reference value :  2.29421e-05
 Reference value :  2.30011e-05
 Reference value :  2.30043e-05
 Reference value :  2.30063e-05
 Reference value :  2.30081e-05
 Reference value :  2.30105e-05
 Reference value :  2.30135e-05
 Reference value :  2.30156e-05
 Reference value :  2.30179e-05
 Reference value :  2.30203e-05
 Reference value :  2.30240e-05
 Reference value :  2.30323e-05
 Reference value :  2.30387e-05
 Reference value :  2.30451e-05
 Reference value :  2.30660e-05
 Reference value :  2.31212e-05
 Reference value :  2.32501e-05
 Reference value :  2.32502e-05
 Reference value :  2.32503e-05
 Reference value :  2.32510e-05
 Reference value :  2.32525e-05
 Reference value :  2.32537e-05
 Reference value :  2.32548e-05
 Reference value :  2.32572e-05
 Reference value :  2.32700e-05
 Reference value :  2.34519e-05
 Reference value :  2.35001e-05
 Reference value :  2.35001e-05
 Reference value :  2.35003e-05
 Reference value :  2.35009e-05
 Reference value :  2.35017e-05
 Reference value :  2.35032e-05
 Reference value :  2.35044e-05
 Reference value :  2.35060e-05
 Reference value :  2.35067e-05
 Reference value :  2.35084e-05
 Reference value :  2.35114e-05
 Reference value :  2.35248e-05
 Reference value :  2.36654e-05
 Reference value :  2.37501e-05
 Reference value :  2.37502e-05
 Reference value :  2.37504e-05
 Reference value :  2.37515e-05
 Reference value :  2.37533e-05
 Reference value :  2.37544e-05
 Reference value :  2.37555e-05
 Reference value :  2.37571e-05
 Reference value :  2.37602e-05
 Reference value :  2.37729e-05
 Reference value :  2.38182e-05
 Reference value :  2.40000e-05
 Reference value :  2.40001e-05
 Reference value :  2.40002e-05
 Reference value :  2.40005e-05
 Reference value :  2.40018e-05
 Reference value :  2.40028e-05
 Reference value :  2.40039e-05
 Reference value :  2.40058e-05
 Reference value :  2.40082e-05
 Reference value :  2.40115e-05
 Reference value :  2.40135e-05
 Reference value :  2.40164e-05
 Reference value :  2.40187e-05
 Reference value :  2.40219e-05
 Reference value :  2.40259e-05
 Reference value :  2.40304e-05
 Reference value :  2.40388e-05
 Reference value :  2.40586e-05
 Reference value :  2.41399e-05
 Reference value :  2.42501e-05
 Reference value :  2.42502e-05
 Reference value :  2.42503e-05
 Reference value :  2.42507e-05
 Reference value :  2.42515e-05
 Reference value :  2.42525e-05
 Reference value :  2.42538e-05
 Reference value :  2.42550e-05
 Reference value :  2.42577e-05
 Reference value :  2.42653e-05
 Reference value :  2.43146e-05
 Reference value :  2.45000e-05
 Reference value :  2.45001e-05
 Reference value :  2.45002e-05
 Reference value :  2.45005e-05
 Reference value :  2.45013e-05
 Reference value :  2.45023e-05
 Reference value :  2.45033e-05
 Reference value :  2.45046e-05
 Reference value :  2.45064e-05
 Reference value :  2.45080e-05
 Reference value :  2.45098e-05
 Reference value :  2.45142e-05
 Reference value :  2.45811e-05
 Reference value :  2.47501e-05
 Reference value :  2.47502e-05
 Reference value :  2.47507e-05
 Reference value :  2.47515e-05
 Reference value :  2.47532e-05
 Reference value :  2.47544e-05
 Reference value :  2.47555e-05
 Reference value :  2.47571e-05
 Reference value :  2.47641e-05
 Reference value :  2.48498e-05
 Reference value :  2.50000e-05
 Reference value :  2.50001e-05
 Reference value :  2.50001e-05
 Reference value :  2.50003e-05
 Reference value :  2.50013e-05
 Reference value :  2.50023e-05
 Reference value :  2.50033e-05
 Reference value :  2.50045e-05
 Reference value :  2.50058e-05
 Reference value :  2.50075e-05
 Reference value :  2.50103e-05
 Reference value :  2.50410e-05
 Reference value :  2.52501e-05
 Reference value :  2.52502e-05
 Reference value :  2.52504e-05
 Reference value :  2.52515e-05
 Reference value :  2.52532e-05
 Reference value :  2.52560e-05
 Reference value :  2.52679e-05
 Reference value :  2.55015e-05
 Reference value :  2.55060e-05
 Reference value :  2.55134e-05
 Reference value :  2.55255e-05
 Reference value :  2.55290e-05
 Reference value :  2.55317e-05
 Reference value :  2.55360e-05
 Reference value :  2.55407e-05
 Reference value :  2.55518e-05
 Reference value :  2.55860e-05
 Reference value :  2.57501e-05
 Reference value :  2.57502e-05
 Reference value :  2.57504e-05
 Reference value :  2.57515e-05
 Reference value :  2.57532e-05
 Reference value :  2.57543e-05
 Reference value :  2.57555e-05
 Reference value :  2.57614e-05
 Reference value :  2.58659e-05
 Reference value :  2.60001e-05
 Reference value :  2.60002e-05
 Reference value :  2.60005e-05
 Reference value :  2.60018e-05
 Reference value :  2.60033e-05
 Reference value :  2.60064e-05
 Reference value :  2.60089e-05
 Reference value :  2.60133e-05
 Reference value :  2.60189e-05
 Reference value :  2.60592e-05
 Reference value :  2.62501e-05
 Reference value :  2.62502e-05
 Reference value :  2.62503e-05
 Reference value :  2.62507e-05
 Reference value :  2.62515e-05
 Reference value :  2.62533e-05
 Reference value :  2.62544e-05
 Reference value :  2.62555e-05
 Reference value :  2.62563e-05
 Reference value :  2.62588e-05
 Reference value :  2.62813e-05
 Reference value :  2.64418e-05
 Reference value :  2.65010e-05
 Reference value :  2.65040e-05
 Reference value :  2.65059e-05
 Reference value :  2.65067e-05
 Reference value :  2.65086e-05
 Reference value :  2.65114e-05
 Reference value :  2.65139e-05
 Reference value :  2.65162e-05
 Reference value :  2.65184e-05
 Reference value :  2.65214e-05
 Reference value :  2.65311e-05
 Reference value :  2.65745e-05
 Reference value :  2.67501e-05
 Reference value :  2.67502e-05
 Reference value :  2.67503e-05
 Reference value :  2.67507e-05
 Reference value :  2.67515e-05
 Reference value :  2.67532e-05
 Reference value :  2.67543e-05
 Reference value :  2.67555e-05
 Reference value :  2.67592e-05
 Reference value :  2.67863e-05
 Reference value :  2.70000e-05
 Reference value :  2.70001e-05
 Reference value :  2.70001e-05
 Reference value :  2.70005e-05
 Reference value :  2.70018e-05
 Reference value :  2.70033e-05
 Reference value :  2.70045e-05
 Reference value :  2.70064e-05
 Reference value :  2.70080e-05
 Reference value :  2.70098e-05
 Reference value :  2.70120e-05
 Reference value :  2.70276e-05
 Reference value :  2.71514e-05
 Reference value :  2.72501e-05
 Reference value :  2.72502e-05
 Reference value :  2.72504e-05
 Reference value :  2.72515e-05
 Reference value :  2.72525e-05
 Reference value :  2.72538e-05
 Reference value :  2.72549e-05
 Reference value :  2.72563e-05
 Reference value :  2.72609e-05
 Reference value :  2.72812e-05
 Reference value :  2.75000e-05
 Reference value :  2.75001e-05
 Reference value :  2.75001e-05
 Reference value :  2.75003e-05
 Reference value :  2.75013e-05
 Reference value :  2.75028e-05
 Reference value :  2.75045e-05
 Reference value :  2.75065e-05
 Reference value :  2.75098e-05
 Reference value :  2.75139e-05
 Reference value :  2.75172e-05
 Reference value :  2.75214e-05
 Reference value :  2.75401e-05
 Reference value :  2.77291e-05
 Reference value :  2.77502e-05
 Reference value :  2.77503e-05
 Reference value :  2.77507e-05
 Reference value :  2.77515e-05
 Reference value :  2.77533e-05
 Reference value :  2.77550e-05
 Reference value :  2.77593e-05
 Reference value :  2.77864e-05
 Reference value :  2.80003e-05
 Reference value :  2.80012e-05
 Reference value :  2.80023e-05
 Reference value :  2.80039e-05
 Reference value :  2.80055e-05
 Reference value :  2.80084e-05
 Reference value :  2.80104e-05
 Reference value :  2.80153e-05
 Reference value :  2.80349e-05
 Reference value :  2.81427e-05
 Reference value :  2.82501e-05
 Reference value :  2.82502e-05
 Reference value :  2.82503e-05
 Reference value :  2.82510e-05
 Reference value :  2.82515e-05
 Reference value :  2.82525e-05
 Reference value :  2.82538e-05
 Reference value :  2.82549e-05
 Reference value :  2.82563e-05
 Reference value :  2.82609e-05
 Reference value :  2.82812e-05
 Reference value :  2.85000e-05
 Reference value :  2.85001e-05
 Reference value :  2.85001e-05
 Reference value :  2.85003e-05
 Reference value :  2.85013e-05
 Reference value :  2.85028e-05
 Reference value :  2.85039e-05
 Reference value :  2.85052e-05
 Reference value :  2.85065e-05
 Reference value :  2.85084e-05
 Reference value :  2.85098e-05
 Reference value :  2.85128e-05
 Reference value :  2.85139e-05
 Reference value :  2.85161e-05
 Reference value :  2.85182e-05
 Reference value :  2.85231e-05
 Reference value :  2.85356e-05
 Reference value :  2.85454e-05
 Reference value :  2.85595e-05
 Reference value :  2.86053e-05
 Reference value :  2.87116e-05
 Reference value :  2.87502e-05
 Reference value :  2.87503e-05
 Reference value :  2.87507e-05
 Reference value :  2.87515e-05
 Reference value :  2.87533e-05
 Reference value :  2.87543e-05
 Reference value :  2.87556e-05
 Reference value :  2.87592e-05
 Reference value :  2.88105e-05
 Reference value :  2.90006e-05
 Reference value :  2.90023e-05
 Reference value :  2.90035e-05
 Reference value :  2.90057e-05
 Reference value :  2.90066e-05
 Reference value :  2.90095e-05
 Reference value :  2.90117e-05
 Reference value :  2.90260e-05
 Reference value :  2.92070e-05
 Reference value :  2.92501e-05
 Reference value :  2.92502e-05
 Reference value :  2.92503e-05
 Reference value :  2.92510e-05
 Reference value :  2.92520e-05
 Reference value :  2.92532e-05
 Reference value :  2.92537e-05
 Reference value :  2.92549e-05
 Reference value :  2.92562e-05
 Reference value :  2.92589e-05
 Reference value :  2.92639e-05
 Reference value :  2.92939e-05
 Reference value :  2.95000e-05
 Reference value :  2.95001e-05
 Reference value :  2.95002e-05
 Reference value :  2.95005e-05
 Reference value :  2.95018e-05
 Reference value :  2.95028e-05
 Reference value :  2.95039e-05
 Reference value :  2.95052e-05
 Reference value :  2.95064e-05
 Reference value :  2.95093e-05
 Reference value :  2.95115e-05
 Reference value :  2.95135e-05
 Reference value :  2.95154e-05
 Reference value :  2.95186e-05
 Reference value :  2.95238e-05
 Reference value :  2.95297e-05
 Reference value :  2.95339e-05
 Reference value :  2.95380e-05
 Reference value :  2.95502e-05
 Reference value :  2.95847e-05
 Reference value :  2.96735e-05
 Reference value :  2.97501e-05
 Reference value :  2.97502e-05
 Reference value :  2.97503e-05
 Reference value :  2.97507e-05
 Reference value :  2.97515e-05
 Reference value :  2.97533e-05
 Reference value :  2.97544e-05
 Reference value :  2.97556e-05
 Reference value :  2.97618e-05
 Reference value :  2.98146e-05
 Reference value :  3.00000e-05
 Reference value :  3.00001e-05
 Reference value :  3.00002e-05
 Reference value :  3.00005e-05
 Reference value :  3.00018e-05
 Reference value :  3.00033e-05
 Reference value :  3.00055e-05
 Reference value :  3.00072e-05
 Reference value :  3.00089e-05
 Reference value :  3.00120e-05
 Reference value :  3.00811e-05
 Reference value :  3.02501e-05
 Reference value :  3.02502e-05
 Reference value :  3.02504e-05
 Reference value :  3.02515e-05
 Reference value :  3.02538e-05
 Reference value :  3.02549e-05
 Reference value :  3.02571e-05
 Reference value :  3.02698e-05
 Reference value :  3.05000e-05
 Reference value :  3.05011e-05
 Reference value :  3.05043e-05
 Reference value :  3.05071e-05
 Reference value :  3.05105e-05
 Reference value :  3.05135e-05
 Reference value :  3.05156e-05
 Reference value :  3.05179e-05
 Reference value :  3.05220e-05
 Reference value :  3.05329e-05
 Reference value :  3.05386e-05
 Reference value :  3.05468e-05
 Reference value :  3.05515e-05
 Reference value :  3.05620e-05
 Reference value :  3.05833e-05
 Reference value :  3.06473e-05
 Reference value :  3.07269e-05
 Reference value :  3.07501e-05
 Reference value :  3.07502e-05
 Reference value :  3.07503e-05
 Reference value :  3.07510e-05
 Reference value :  3.07520e-05
 Reference value :  3.07537e-05
 Reference value :  3.07548e-05
 Reference value :  3.07574e-05
 Reference value :  3.07647e-05
 Reference value :  3.07800e-05
 Reference value :  3.08804e-05
 Reference value :  3.10000e-05
 Reference value :  3.10001e-05
 Reference value :  3.10002e-05
 Reference value :  3.10009e-05
 Reference value :  3.10023e-05
 Reference value :  3.10033e-05
 Reference value :  3.10055e-05
 Reference value :  3.10072e-05
 Reference value :  3.10089e-05
 Reference value :  3.10120e-05
 Reference value :  3.10811e-05
 Reference value :  3.12501e-05
 Reference value :  3.12502e-05
 Reference value :  3.12504e-05
 Reference value :  3.12510e-05
 Reference value :  3.12520e-05
 Reference value :  3.12533e-05
 Reference value :  3.12538e-05
 Reference value :  3.12549e-05
 Reference value :  3.12563e-05
 Reference value :  3.12609e-05
 Reference value :  3.12814e-05
 Reference value :  3.14425e-05
 Reference value :  3.15000e-05
 Reference value :  3.15001e-05
 Reference value :  3.15003e-05
 Reference value :  3.15013e-05
 Reference value :  3.15028e-05
 Reference value :  3.15033e-05
 Reference value :  3.15045e-05
 Reference value :  3.15058e-05
 Reference value :  3.15084e-05
 Reference value :  3.15098e-05
 Reference value :  3.15128e-05
 Reference value :  3.15150e-05
 Reference value :  3.15182e-05
 Reference value :  3.15266e-05
 Reference value :  3.15383e-05
 Reference value :  3.15452e-05
 Reference value :  3.15603e-05
 Reference value :  3.15852e-05
 Reference value :  3.17414e-05
 Reference value :  3.17501e-05
 Reference value :  3.17502e-05
 Reference value :  3.17503e-05
 Reference value :  3.17510e-05
 Reference value :  3.17520e-05
 Reference value :  3.17533e-05
 Reference value :  3.17538e-05
 Reference value :  3.17549e-05
 Reference value :  3.17620e-05
 Reference value :  3.18626e-05
 Reference value :  3.20001e-05
 Reference value :  3.20002e-05
 Reference value :  3.20013e-05
 Reference value :  3.20022e-05
 Reference value :  3.20032e-05
 Reference value :  3.20044e-05
 Reference value :  3.20060e-05
 Reference value :  3.20075e-05
 Reference value :  3.20103e-05
 Reference value :  3.20185e-05
 Reference value :  3.21638e-05
 Reference value :  3.22502e-05
 Reference value :  3.22504e-05
 Reference value :  3.22515e-05
 Reference value :  3.22533e-05
 Reference value :  3.22538e-05
 Reference value :  3.22549e-05
 Reference value :  3.22563e-05
 Reference value :  3.22579e-05
 Reference value :  3.22602e-05
 Reference value :  3.22671e-05
 Reference value :  3.22957e-05
 Reference value :  3.24590e-05
 Reference value :  3.25000e-05
 Reference value :  3.25001e-05
 Reference value :  3.25002e-05
 Reference value :  3.25003e-05
 Reference value :  3.25009e-05
 Reference value :  3.25018e-05
 Reference value :  3.25028e-05
 Reference value :  3.25033e-05
 Reference value :  3.25046e-05
 Reference value :  3.25058e-05
 Reference value :  3.25073e-05
 Reference value :  3.25093e-05
 Reference value :  3.25115e-05
 Reference value :  3.25135e-05
 Reference value :  3.25154e-05
 Reference value :  3.25175e-05
 Reference value :  3.25187e-05
 Reference value :  3.25219e-05
 Reference value :  3.25285e-05
 Reference value :  3.25514e-05
 Reference value :  3.25694e-05
 Reference value :  3.26156e-05
 Reference value :  3.26434e-05
 Reference value :  3.26671e-05
 Reference value :  3.27501e-05
 Reference value :  3.27502e-05
 Reference value :  3.27502e-05
 Reference value :  3.27504e-05
 Reference value :  3.27515e-05
 Reference value :  3.27532e-05
 Reference value :  3.27544e-05
 Reference value :  3.27564e-05
 Reference value :  3.27719e-05
 Reference value :  3.29296e-05
 Reference value :  3.30000e-05
 Reference value :  3.30001e-05
 Reference value :  3.30003e-05
 Reference value :  3.30018e-05
 Reference value :  3.30032e-05
 Reference value :  3.30052e-05
 Reference value :  3.30067e-05
 Reference value :  3.30084e-05
 Reference value :  3.30115e-05
 Reference value :  3.30248e-05
 Reference value :  3.30906e-05
 Reference value :  3.32501e-05
 Reference value :  3.32502e-05
 Reference value :  3.32503e-05
 Reference value :  3.32510e-05
 Reference value :  3.32520e-05
 Reference value :  3.32533e-05
 Reference value :  3.32538e-05
 Reference value :  3.32549e-05
 Reference value :  3.32563e-05
 Reference value :  3.32589e-05
 Reference value :  3.32640e-05
 Reference value :  3.32814e-05
 Reference value :  3.34571e-05
 Reference value :  3.35007e-05
 Reference value :  3.35029e-05
 Reference value :  3.35044e-05
 Reference value :  3.35056e-05
 Reference value :  3.35077e-05
 Reference value :  3.35094e-05
 Reference value :  3.35103e-05
 Reference value :  3.35139e-05
 Reference value :  3.35194e-05
 Reference value :  3.35236e-05
 Reference value :  3.35309e-05
 Reference value :  3.35533e-05
 Reference value :  3.36384e-05
 Reference value :  3.37501e-05
 Reference value :  3.37502e-05
 Reference value :  3.37503e-05
 Reference value :  3.37504e-05
 Reference value :  3.37510e-05
 Reference value :  3.37520e-05
 Reference value :  3.37532e-05
 Reference value :  3.37550e-05
 Reference value :  3.37585e-05
 Reference value :  3.37770e-05
 Reference value :  3.39065e-05
 Reference value :  3.40001e-05
 Reference value :  3.40002e-05
 Reference value :  3.40014e-05
 Reference value :  3.40024e-05
 Reference value :  3.40036e-05
 Reference value :  3.40049e-05
 Reference value :  3.40071e-05
 Reference value :  3.40138e-05
 Reference value :  3.40262e-05
 Reference value :  3.40307e-05
 Reference value :  3.40382e-05
 Reference value :  3.40448e-05
 Reference value :  3.40523e-05
 Reference value :  3.40688e-05
 Reference value :  3.41148e-05
 Reference value :  3.42501e-05
 Reference value :  3.42502e-05
 Reference value :  3.42503e-05
 Reference value :  3.42507e-05
 Reference value :  3.42515e-05
 Reference value :  3.42532e-05
 Reference value :  3.42544e-05
 Reference value :  3.42555e-05
 Reference value :  3.42615e-05
 Reference value :  3.43669e-05
 Reference value :  3.45000e-05
 Reference value :  3.45001e-05
 Reference value :  3.45002e-05
 Reference value :  3.45009e-05
 Reference value :  3.45023e-05
 Reference value :  3.45033e-05
 Reference value :  3.45055e-05
 Reference value :  3.45076e-05
 Reference value :  3.45102e-05
 Reference value :  3.45133e-05
 Reference value :  3.45163e-05
 Reference value :  3.45313e-05
 Reference value :  3.46450e-05
 Reference value :  3.47501e-05
 Reference value :  3.47502e-05
 Reference value :  3.47503e-05
 Reference value :  3.47507e-05
 Reference value :  3.47515e-05
 Reference value :  3.47525e-05
 Reference value :  3.47538e-05
 Reference value :  3.47549e-05
 Reference value :  3.47563e-05
 Reference value :  3.47588e-05
 Reference value :  3.47698e-05
 Reference value :  3.50000e-05
 Reference value :  3.50001e-05
 Reference value :  3.50003e-05
 Reference value :  3.50013e-05
 Reference value :  3.50028e-05
 Reference value :  3.50033e-05
 Reference value :  3.50045e-05
 Reference value :  3.50058e-05
 Reference value :  3.50084e-05
 Reference value :  3.50098e-05
 Reference value :  3.50128e-05
 Reference value :  3.50161e-05
 Reference value :  3.50181e-05
 Reference value :  3.50251e-05
 Reference value :  3.50687e-05
 Reference value :  3.52501e-05
 Reference value :  3.52503e-05
 Reference value :  3.52510e-05
 Reference value :  3.52525e-05
 Reference value :  3.52538e-05
 Reference value :  3.52565e-05
 Reference value :  3.52724e-05
 Reference value :  3.55000e-05
 Reference value :  3.55001e-05
 Reference value :  3.55003e-05
 Reference value :  3.55018e-05
 Reference value :  3.55033e-05
 Reference value :  3.55055e-05
 Reference value :  3.55072e-05
 Reference value :  3.55089e-05
 Reference value :  3.55109e-05
 Reference value :  3.55276e-05
 Reference value :  3.57501e-05
 Reference value :  3.57502e-05
 Reference value :  3.57502e-05
 Reference value :  3.57504e-05
 Reference value :  3.57515e-05
 Reference value :  3.57533e-05
 Reference value :  3.57544e-05
 Reference value :  3.57555e-05
 Reference value :  3.57571e-05
 Reference value :  3.57698e-05
 Reference value :  3.59420e-05
 Reference value :  3.60010e-05
 Reference value :  3.60040e-05
 Reference value :  3.60059e-05
 Reference value :  3.60076e-05
 Reference value :  3.60113e-05
 Reference value :  3.60125e-05
 Reference value :  3.60151e-05
 Reference value :  3.60171e-05
 Reference value :  3.60194e-05
 Reference value :  3.60250e-05
 Reference value :  3.60360e-05
 Reference value :  3.61615e-05
 Reference value :  3.62501e-05
 Reference value :  3.62502e-05
 Reference value :  3.62503e-05
 Reference value :  3.62510e-05
 Reference value :  3.62520e-05
 Reference value :  3.62532e-05
 Reference value :  3.62543e-05
 Reference value :  3.62555e-05
 Reference value :  3.62592e-05
 Reference value :  3.62862e-05
 Reference value :  3.65000e-05
 Reference value :  3.65001e-05
 Reference value :  3.65002e-05
 Reference value :  3.65009e-05
 Reference value :  3.65023e-05
 Reference value :  3.65039e-05
 Reference value :  3.65064e-05
 Reference value :  3.65080e-05
 Reference value :  3.65098e-05
 Reference value :  3.65142e-05
 Reference value :  3.65806e-05
 Reference value :  3.67501e-05
 Reference value :  3.67503e-05
 Reference value :  3.67510e-05
 Reference value :  3.67525e-05
 Reference value :  3.67538e-05
 Reference value :  3.67549e-05
 Reference value :  3.67563e-05
 Reference value :  3.67609e-05
 Reference value :  3.68040e-05
 Reference value :  3.70000e-05
 Reference value :  3.70001e-05
 Reference value :  3.70002e-05
 Reference value :  3.70005e-05
 Reference value :  3.70018e-05
 Reference value :  3.70033e-05
 Reference value :  3.70052e-05
 Reference value :  3.70065e-05
 Reference value :  3.70098e-05
 Reference value :  3.70128e-05
 Reference value :  3.70150e-05
 Reference value :  3.70182e-05
 Reference value :  3.70266e-05
 Reference value :  3.70361e-05
 Reference value :  3.70473e-05
 Reference value :  3.70630e-05
 Reference value :  3.70690e-05
 Reference value :  3.71143e-05
 Reference value :  3.72000e-05
 Reference value :  3.72501e-05
 Reference value :  3.72502e-05
 Reference value :  3.72504e-05
 Reference value :  3.72515e-05
 Reference value :  3.72533e-05
 Reference value :  3.72538e-05
 Reference value :  3.72549e-05
 Reference value :  3.72578e-05
 Reference value :  3.72652e-05
 Reference value :  3.73105e-05
 Reference value :  3.75000e-05
 Reference value :  3.75001e-05
 Reference value :  3.75001e-05
 Reference value :  3.75003e-05
 Reference value :  3.75013e-05
 Reference value :  3.75022e-05
 Reference value :  3.75032e-05
 Reference value :  3.75052e-05
 Reference value :  3.75067e-05
 Reference value :  3.75084e-05
 Reference value :  3.75114e-05
 Reference value :  3.75247e-05
 Reference value :  3.77501e-05
 Reference value :  3.77502e-05
 Reference value :  3.77503e-05
 Reference value :  3.77510e-05
 Reference value :  3.77520e-05
 Reference value :  3.77533e-05
 Reference value :  3.77544e-05
 Reference value :  3.77555e-05
 Reference value :  3.77571e-05
 Reference value :  3.77602e-05
 Reference value :  3.77731e-05
 Reference value :  3.79604e-05
 Reference value :  3.80001e-05
 Reference value :  3.80002e-05
 Reference value :  3.80009e-05
 Reference value :  3.80023e-05
 Reference value :  3.80033e-05
 Reference value :  3.80052e-05
 Reference value :  3.80064e-05
 Reference value :  3.80093e-05
 Reference value :  3.80126e-05
 Reference value :  3.80143e-05
 Reference value :  3.80164e-05
 Reference value :  3.80185e-05
 Reference value :  3.80231e-05
 Reference value :  3.80287e-05
 Reference value :  3.80346e-05
 Reference value :  3.80390e-05
 Reference value :  3.80536e-05
 Reference value :  3.80967e-05
 Reference value :  3.81655e-05
 Reference value :  3.82501e-05
 Reference value :  3.82502e-05
 Reference value :  3.82504e-05
 Reference value :  3.82515e-05
 Reference value :  3.82533e-05
 Reference value :  3.82544e-05
 Reference value :  3.82556e-05
 Reference value :  3.82593e-05
 Reference value :  3.82865e-05
 Reference value :  3.84840e-05
 Reference value :  3.85003e-05
 Reference value :  3.85011e-05
 Reference value :  3.85018e-05
 Reference value :  3.85033e-05
 Reference value :  3.85055e-05
 Reference value :  3.85074e-05
 Reference value :  3.85093e-05
 Reference value :  3.85115e-05
 Reference value :  3.85247e-05
 Reference value :  3.86495e-05
 Reference value :  3.87502e-05
 Reference value :  3.87502e-05
 Reference value :  3.87507e-05
 Reference value :  3.87515e-05
 Reference value :  3.87525e-05
 Reference value :  3.87538e-05
 Reference value :  3.87549e-05
 Reference value :  3.87563e-05
 Reference value :  3.87609e-05
 Reference value :  3.87812e-05
 Reference value :  3.90000e-05
 Reference value :  3.90001e-05
 Reference value :  3.90001e-05
 Reference value :  3.90003e-05
 Reference value :  3.90013e-05
 Reference value :  3.90028e-05
 Reference value :  3.90039e-05
 Reference value :  3.90058e-05
 Reference value :  3.90098e-05
 Reference value :  3.90128e-05
 Reference value :  3.90161e-05
 Reference value :  3.90181e-05
 Reference value :  3.90251e-05
 Reference value :  3.90345e-05
 Reference value :  3.90455e-05
 Reference value :  3.90631e-05
 Reference value :  3.91062e-05
 Reference value :  3.92501e-05
 Reference value :  3.92502e-05
 Reference value :  3.92503e-05
 Reference value :  3.92510e-05
 Reference value :  3.92520e-05
 Reference value :  3.92538e-05
 Reference value :  3.92549e-05
 Reference value :  3.92593e-05
 Reference value :  3.92848e-05
 Reference value :  3.94530e-05
 Reference value :  3.95000e-05
 Reference value :  3.95001e-05
 Reference value :  3.95001e-05
 Reference value :  3.95003e-05
 Reference value :  3.95009e-05
 Reference value :  3.95018e-05
 Reference value :  3.95033e-05
 Reference value :  3.95046e-05
 Reference value :  3.95064e-05
 Reference value :  3.95080e-05
 Reference value :  3.95089e-05
 Reference value :  3.95109e-05
 Reference value :  3.95187e-05
 Reference value :  3.95815e-05
 Reference value :  3.96645e-05
 Reference value :  3.97501e-05
 Reference value :  3.97502e-05
 Reference value :  3.97503e-05
 Reference value :  3.97507e-05
 Reference value :  3.97515e-05
 Reference value :  3.97525e-05
 Reference value :  3.97538e-05
 Reference value :  3.97549e-05
 Reference value :  3.97563e-05
 Reference value :  3.97609e-05
 Reference value :  3.97814e-05
 Reference value :  3.99425e-05
 Reference value :  4.00000e-05
 Reference value :  4.00001e-05
 Reference value :  4.00002e-05
 Reference value :  4.00003e-05
 Reference value :  4.00009e-05
 Reference value :  4.00018e-05
 Reference value :  4.00028e-05
 Reference value :  4.00039e-05
 Reference value :  4.00052e-05
 Reference value :  4.00065e-05
 Reference value :  4.00098e-05
 Reference value :  4.00128e-05
 Reference value :  4.00150e-05
 Reference value :  4.00172e-05
 Reference value :  4.00195e-05
 Reference value :  4.00266e-05
 Reference value :  4.00307e-05
 Reference value :  4.00364e-05
 Reference value :  4.00423e-05
 Reference value :  4.00565e-05
 Reference value :  4.00902e-05
 Reference value :  4.02501e-05
 Reference value :  4.02502e-05
 Reference value :  4.02503e-05
 Reference value :  4.02507e-05
 Reference value :  4.02515e-05
 Reference value :  4.02533e-05
 Reference value :  4.02543e-05
 Reference value :  4.02556e-05
 Reference value :  4.02592e-05
 Reference value :  4.02847e-05
 Reference value :  4.04666e-05
 Reference value :  4.05000e-05
 Reference value :  4.05001e-05
 Reference value :  4.05002e-05
 Reference value :  4.05009e-05
 Reference value :  4.05017e-05
 Reference value :  4.05032e-05
 Reference value :  4.05052e-05
 Reference value :  4.05067e-05
 Reference value :  4.05084e-05
 Reference value :  4.05115e-05
 Reference value :  4.05247e-05
 Reference value :  4.06638e-05
 Reference value :  4.07501e-05
 Reference value :  4.07502e-05
 Reference value :  4.07503e-05
 Reference value :  4.07510e-05
 Reference value :  4.07515e-05
 Reference value :  4.07525e-05
 Reference value :  4.07538e-05
 Reference value :  4.07549e-05
 Reference value :  4.07563e-05
 Reference value :  4.07589e-05
 Reference value :  4.07641e-05
 Reference value :  4.07957e-05
 Reference value :  4.09590e-05
 Reference value :  4.10007e-05
 Reference value :  4.10028e-05
 Reference value :  4.10041e-05
 Reference value :  4.10047e-05
 Reference value :  4.10058e-05
 Reference value :  4.10073e-05
 Reference value :  4.10093e-05
 Reference value :  4.10102e-05
 Reference value :  4.10121e-05
 Reference value :  4.10139e-05
 Reference value :  4.10158e-05
 Reference value :  4.10177e-05
 Reference value :  4.10202e-05
 Reference value :  4.10259e-05
 Reference value :  4.10383e-05
 Reference value :  4.10971e-05
 Reference value :  4.12501e-05
 Reference value :  4.12502e-05
 Reference value :  4.12503e-05
 Reference value :  4.12510e-05
 Reference value :  4.12520e-05
 Reference value :  4.12532e-05
 Reference value :  4.12538e-05
 Reference value :  4.12549e-05
 Reference value :  4.12564e-05
 Reference value :  4.12618e-05
 Reference value :  4.12852e-05
 Reference value :  4.14726e-05
 Reference value :  4.15000e-05
 Reference value :  4.15001e-05
 Reference value :  4.15002e-05
 Reference value :  4.15009e-05
 Reference value :  4.15017e-05
 Reference value :  4.15027e-05
 Reference value :  4.15032e-05
 Reference value :  4.15052e-05
 Reference value :  4.15067e-05
 Reference value :  4.15084e-05
 Reference value :  4.15103e-05
 Reference value :  4.15114e-05
 Reference value :  4.15186e-05
 Reference value :  4.15544e-05
 Reference value :  4.17501e-05
 Reference value :  4.17501e-05
 Reference value :  4.17502e-05
 Reference value :  4.17503e-05
 Reference value :  4.17510e-05
 Reference value :  4.17520e-05
 Reference value :  4.17533e-05
 Reference value :  4.17538e-05
 Reference value :  4.17549e-05
 Reference value :  4.17563e-05
 Reference value :  4.17589e-05
 Reference value :  4.17640e-05
 Reference value :  4.17814e-05
 Reference value :  4.18657e-05
 Reference value :  4.20000e-05
 Reference value :  4.20001e-05
 Reference value :  4.20002e-05
 Reference value :  4.20009e-05
 Reference value :  4.20023e-05
 Reference value :  4.20033e-05
 Reference value :  4.20046e-05
 Reference value :  4.20058e-05
 Reference value :  4.20073e-05
 Reference value :  4.20089e-05
 Reference value :  4.20104e-05
 Reference value :  4.20151e-05
 Reference value :  4.20194e-05
 Reference value :  4.20270e-05
 Reference value :  4.20372e-05
 Reference value :  4.20493e-05
 Reference value :  4.20744e-05
 Reference value :  4.21310e-05
 Reference value :  4.22501e-05
 Reference value :  4.22502e-05
 Reference value :  4.22503e-05
 Reference value :  4.22507e-05
 Reference value :  4.22520e-05
 Reference value :  4.22540e-05
 Reference value :  4.22570e-05
 Reference value :  4.22632e-05
 Reference value :  4.23346e-05
 Reference value :  4.25000e-05
 Reference value :  4.25001e-05
 Reference value :  4.25002e-05
 Reference value :  4.25009e-05
 Reference value :  4.25020e-05
 Reference value :  4.25030e-05
 Reference value :  4.25049e-05
 Reference value :  4.25103e-05
 Reference value :  4.25262e-05
 Reference value :  4.25307e-05
 Reference value :  4.25382e-05
 Reference value :  4.25485e-05
 Reference value :  4.25639e-05
 Reference value :  4.26204e-05
 Reference value :  4.27501e-05
 Reference value :  4.27502e-05
 Reference value :  4.27503e-05
 Reference value :  4.27504e-05
 Reference value :  4.27510e-05
 Reference value :  4.27520e-05
 Reference value :  4.27532e-05
 Reference value :  4.27538e-05
 Reference value :  4.27549e-05
 Reference value :  4.27575e-05
 Reference value :  4.27718e-05
 Reference value :  4.28673e-05
 Reference value :  4.30000e-05
 Reference value :  4.30001e-05
 Reference value :  4.30002e-05
 Reference value :  4.30005e-05
 Reference value :  4.30013e-05
 Reference value :  4.30028e-05
 Reference value :  4.30039e-05
 Reference value :  4.30064e-05
 Reference value :  4.30089e-05
 Reference value :  4.30133e-05
 Reference value :  4.30164e-05
 Reference value :  4.30313e-05
 Reference value :  4.31452e-05
 Reference value :  4.32501e-05
 Reference value :  4.32502e-05
 Reference value :  4.32503e-05
 Reference value :  4.32510e-05
 Reference value :  4.32520e-05
 Reference value :  4.32533e-05
 Reference value :  4.32544e-05
 Reference value :  4.32555e-05
 Reference value :  4.32571e-05
 Reference value :  4.32641e-05
 Reference value :  4.33042e-05
 Reference value :  4.35010e-05
 Reference value :  4.35040e-05
 Reference value :  4.35059e-05
 Reference value :  4.35076e-05
 Reference value :  4.35114e-05
 Reference value :  4.35126e-05
 Reference value :  4.35162e-05
 Reference value :  4.35182e-05
 Reference value :  4.35226e-05
 Reference value :  4.35469e-05
 Reference value :  4.37501e-05
 Reference value :  4.37502e-05
 Reference value :  4.37502e-05
 Reference value :  4.37504e-05
 Reference value :  4.37515e-05
 Reference value :  4.37525e-05
 Reference value :  4.37537e-05
 Reference value :  4.37549e-05
 Reference value :  4.37575e-05
 Reference value :  4.37650e-05
 Reference value :  4.38715e-05
 Reference value :  4.40000e-05
 Reference value :  4.40001e-05
 Reference value :  4.40002e-05
 Reference value :  4.40009e-05
 Reference value :  4.40023e-05
 Reference value :  4.40039e-05
 Reference value :  4.40072e-05
 Reference value :  4.40089e-05
 Reference value :  4.40109e-05
 Reference value :  4.40276e-05
 Reference value :  4.42501e-05
 Reference value :  4.42502e-05
 Reference value :  4.42502e-05
 Reference value :  4.42504e-05
 Reference value :  4.42515e-05
 Reference value :  4.42533e-05
 Reference value :  4.42549e-05
 Reference value :  4.42563e-05
 Reference value :  4.42641e-05
 Reference value :  4.43496e-05
 Reference value :  4.45000e-05
 Reference value :  4.45001e-05
 Reference value :  4.45005e-05
 Reference value :  4.45023e-05
 Reference value :  4.45033e-05
 Reference value :  4.45052e-05
 Reference value :  4.45084e-05
 Reference value :  4.45113e-05
 Reference value :  4.45150e-05
 Reference value :  4.45171e-05
 Reference value :  4.45208e-05
 Reference value :  4.45358e-05
 Reference value :  4.46688e-05
 Reference value :  4.47501e-05
 Reference value :  4.47502e-05
 Reference value :  4.47503e-05
 Reference value :  4.47510e-05
 Reference value :  4.47515e-05
 Reference value :  4.47533e-05
 Reference value :  4.47544e-05
 Reference value :  4.47565e-05
 Reference value :  4.47866e-05
 Reference value :  4.50000e-05
 Reference value :  4.50002e-05
 Reference value :  4.50013e-05
 Reference value :  4.50033e-05
 Reference value :  4.50055e-05
 Reference value :  4.50072e-05
 Reference value :  4.50089e-05
 Reference value :  4.50142e-05
 Reference value :  4.52501e-05
 Reference value :  4.52502e-05
 Reference value :  4.52503e-05
 Reference value :  4.52510e-05
 Reference value :  4.52520e-05
 Reference value :  4.52533e-05
 Reference value :  4.52538e-05
 Reference value :  4.52549e-05
 Reference value :  4.52563e-05
 Reference value :  4.52641e-05
 Reference value :  4.53502e-05
 Reference value :  4.55000e-05
 Reference value :  4.55001e-05
 Reference value :  4.55002e-05
 Reference value :  4.55009e-05
 Reference value :  4.55028e-05
 Reference value :  4.55045e-05
 Reference value :  4.55065e-05
 Reference value :  4.55098e-05
 Reference value :  4.55139e-05
 Reference value :  4.55172e-05
 Reference value :  4.55231e-05
 Reference value :  4.55362e-05
 Reference value :  4.55466e-05
 Reference value :  4.55639e-05
 Reference value :  4.56475e-05
 Reference value :  4.57501e-05
 Reference value :  4.57503e-05
 Reference value :  4.57515e-05
 Reference value :  4.57533e-05
 Reference value :  4.57549e-05
 Reference value :  4.57620e-05
 Reference value :  4.59660e-05
 Reference value :  4.60006e-05
 Reference value :  4.60023e-05
 Reference value :  4.60041e-05
 Reference value :  4.60057e-05
 Reference value :  4.60074e-05
 Reference value :  4.60105e-05
 Reference value :  4.60192e-05
 Reference value :  4.62501e-05
 Reference value :  4.62502e-05
 Reference value :  4.62504e-05
 Reference value :  4.62515e-05
 Reference value :  4.62532e-05
 Reference value :  4.62543e-05
 Reference value :  4.62562e-05
 Reference value :  4.62589e-05
 Reference value :  4.62639e-05
 Reference value :  4.62940e-05
 Reference value :  4.65000e-05
 Reference value :  4.65001e-05
 Reference value :  4.65002e-05
 Reference value :  4.65009e-05
 Reference value :  4.65023e-05
 Reference value :  4.65033e-05
 Reference value :  4.65046e-05
 Reference value :  4.65058e-05
 Reference value :  4.65073e-05
 Reference value :  4.65093e-05
 Reference value :  4.65115e-05
 Reference value :  4.65135e-05
 Reference value :  4.65154e-05
 Reference value :  4.65174e-05
 Reference value :  4.65213e-05
 Reference value :  4.65294e-05
 Reference value :  4.65325e-05
 Reference value :  4.65367e-05
 Reference value :  4.65453e-05
 Reference value :  4.65773e-05
 Reference value :  4.66262e-05
 Reference value :  4.67501e-05
 Reference value :  4.67502e-05
 Reference value :  4.67503e-05
 Reference value :  4.67507e-05
 Reference value :  4.67515e-05
 Reference value :  4.67525e-05
 Reference value :  4.67538e-05
 Reference value :  4.67550e-05
 Reference value :  4.67577e-05
 Reference value :  4.67654e-05
 Reference value :  4.68711e-05
 Reference value :  4.70000e-05
 Reference value :  4.70001e-05
 Reference value :  4.70002e-05
 Reference value :  4.70009e-05
 Reference value :  4.70023e-05
 Reference value :  4.70033e-05
 Reference value :  4.70045e-05
 Reference value :  4.70064e-05
 Reference value :  4.70072e-05
 Reference value :  4.70089e-05
 Reference value :  4.70109e-05
 Reference value :  4.70276e-05
 Reference value :  4.72501e-05
 Reference value :  4.72502e-05
 Reference value :  4.72503e-05
 Reference value :  4.72510e-05
 Reference value :  4.72520e-05
 Reference value :  4.72538e-05
 Reference value :  4.72549e-05
 Reference value :  4.72563e-05
 Reference value :  4.72609e-05
 Reference value :  4.73502e-05
 Reference value :  4.75000e-05
 Reference value :  4.75001e-05
 Reference value :  4.75003e-05
 Reference value :  4.75013e-05
 Reference value :  4.75028e-05
 Reference value :  4.75039e-05
 Reference value :  4.75052e-05
 Reference value :  4.75065e-05
 Reference value :  4.75098e-05
 Reference value :  4.75128e-05
 Reference value :  4.75150e-05
 Reference value :  4.75171e-05
 Reference value :  4.75208e-05
 Reference value :  4.75297e-05
 Reference value :  4.75345e-05
 Reference value :  4.75496e-05
 Reference value :  4.75861e-05
 Reference value :  4.77501e-05
 Reference value :  4.77502e-05
 Reference value :  4.77504e-05
 Reference value :  4.77515e-05
 Reference value :  4.77533e-05
 Reference value :  4.77543e-05
 Reference value :  4.77564e-05
 Reference value :  4.77653e-05
 Reference value :  4.78629e-05
 Reference value :  4.80000e-05
 Reference value :  4.80001e-05
 Reference value :  4.80005e-05
 Reference value :  4.80017e-05
 Reference value :  4.80032e-05
 Reference value :  4.80044e-05
 Reference value :  4.80060e-05
 Reference value :  4.80075e-05
 Reference value :  4.80094e-05
 Reference value :  4.80127e-05
 Reference value :  4.80356e-05
 Reference value :  4.81648e-05
 Reference value :  4.82501e-05
 Reference value :  4.82502e-05
 Reference value :  4.82504e-05
 Reference value :  4.82515e-05
 Reference value :  4.82533e-05
 Reference value :  4.82544e-05
 Reference value :  4.82555e-05
 Reference value :  4.82571e-05
 Reference value :  4.82602e-05
 Reference value :  4.82730e-05
 Reference value :  4.83666e-05
 Reference value :  4.85000e-05
 Reference value :  4.85001e-05
 Reference value :  4.85002e-05
 Reference value :  4.85003e-05
 Reference value :  4.85009e-05
 Reference value :  4.85018e-05
 Reference value :  4.85028e-05
 Reference value :  4.85033e-05
 Reference value :  4.85046e-05
 Reference value :  4.85058e-05
 Reference value :  4.85073e-05
 Reference value :  4.85093e-05
 Reference value :  4.85115e-05
 Reference value :  4.85135e-05
 Reference value :  4.85154e-05
 Reference value :  4.85175e-05
 Reference value :  4.85187e-05
 Reference value :  4.85209e-05
 Reference value :  4.85258e-05
 Reference value :  4.85378e-05
 Reference value :  4.85636e-05
 Reference value :  4.87005e-05
 Reference value :  4.87501e-05
 Reference value :  4.87502e-05
 Reference value :  4.87503e-05
 Reference value :  4.87510e-05
 Reference value :  4.87520e-05
 Reference value :  4.87532e-05
 Reference value :  4.87544e-05
 Reference value :  4.87550e-05
 Reference value :  4.87577e-05
 Reference value :  4.87653e-05
 Reference value :  4.88707e-05
 Reference value :  4.90000e-05
 Reference value :  4.90001e-05
 Reference value :  4.90003e-05
 Reference value :  4.90013e-05
 Reference value :  4.90028e-05
 Reference value :  4.90039e-05
 Reference value :  4.90055e-05
 Reference value :  4.90072e-05
 Reference value :  4.90080e-05
 Reference value :  4.90098e-05
 Reference value :  4.90120e-05
 Reference value :  4.90277e-05
 Reference value :  4.91523e-05
 Reference value :  4.92501e-05
 Reference value :  4.92502e-05
 Reference value :  4.92504e-05
 Reference value :  4.92510e-05
 Reference value :  4.92520e-05
 Reference value :  4.92532e-05
 Reference value :  4.92538e-05
 Reference value :  4.92549e-05
 Reference value :  4.92563e-05
 Reference value :  4.92588e-05
 Reference value :  4.92641e-05
 Reference value :  4.93042e-05
 Reference value :  4.95000e-05
 Reference value :  4.95001e-05
 Reference value :  4.95001e-05
 Reference value :  4.95003e-05
 Reference value :  4.95009e-05
 Reference value :  4.95018e-05
 Reference value :  4.95028e-05
 Reference value :  4.95033e-05
 Reference value :  4.95045e-05
 Reference value :  4.95058e-05
 Reference value :  4.95098e-05
 Reference value :  4.95139e-05
 Reference value :  4.95172e-05
 Reference value :  4.95231e-05
 Reference value :  4.95341e-05
 Reference value :  4.95427e-05
 Reference value :  4.95676e-05
 Reference value :  4.96566e-05
 Reference value :  4.97036e-05
 Reference value :  4.97501e-05
 Reference value :  4.97502e-05
 Reference value :  4.97504e-05
 Reference value :  4.97510e-05
 Reference value :  4.97515e-05
 Reference value :  4.97525e-05
 Reference value :  4.97538e-05
 Reference value :  4.97550e-05
 Reference value :  4.97565e-05
 Reference value :  4.97618e-05
 Reference value :  4.98144e-05
[...]
 Reference value :  2.59501e-04
 Reference value :  2.59502e-04
 Reference value :  2.59503e-04
 Reference value :  2.59503e-04
 Reference value :  2.59504e-04
 Reference value :  2.59506e-04
 Reference value :  2.59507e-04
 Reference value :  2.59508e-04
 Reference value :  2.59511e-04
 Reference value :  2.59536e-04
 Reference value :  2.59750e-04
 Reference value :  2.59750e-04
 Reference value :  2.59750e-04
 Reference value :  2.59751e-04
 Reference value :  2.59752e-04
 Reference value :  2.59753e-04
 Reference value :  2.59754e-04
 Reference value :  2.59755e-04
 Reference value :  2.59756e-04
 Reference value :  2.59759e-04
 Reference value :  2.59764e-04
 Reference value :  2.59781e-04
 Reference value :  2.59960e-04
 Reference value :  2.60000e-04
 Reference value :  2.60000e-04
 Reference value :  2.60000e-04
 Reference value :  2.60001e-04
 Reference value :  2.60003e-04
 Reference value :  2.60005e-04
 Reference value :  2.60006e-04
 Reference value :  2.60008e-04
 Reference value :  2.60010e-04
 Reference value :  2.60013e-04
 Reference value :  2.60014e-04
 Reference value :  2.60016e-04
 Reference value :  2.60019e-04
 Reference value :  2.60021e-04
 Reference value :  2.60025e-04
 Reference value :  2.60029e-04
 Reference value :  2.60035e-04
 Reference value :  2.60060e-04
 Reference value :  2.60110e-04
 Reference value :  2.60250e-04
 Reference value :  2.60250e-04
 Reference value :  2.60250e-04
 Reference value :  2.60250e-04
 Reference value :  2.60251e-04
 Reference value :  2.60252e-04
 Reference value :  2.60253e-04
 Reference value :  2.60254e-04
 Reference value :  2.60256e-04
 Reference value :  2.60259e-04
 Reference value :  2.60272e-04
 Reference value :  2.60371e-04
 Reference value :  2.60500e-04
 Reference value :  2.60500e-04
 Reference value :  2.60500e-04
 Reference value :  2.60500e-04
 Reference value :  2.60501e-04
 Reference value :  2.60502e-04
 Reference value :  2.60503e-04
 Reference value :  2.60503e-04
 Reference value :  2.60505e-04
 Reference value :  2.60506e-04
 Reference value :  2.60507e-04
 Reference value :  2.60509e-04
 Reference value :  2.60511e-04
 Reference value :  2.60519e-04
 Reference value :  2.60581e-04
 Reference value :  2.60750e-04
 Reference value :  2.60750e-04
 Reference value :  2.60750e-04
 Reference value :  2.60750e-04
 Reference value :  2.60751e-04
 Reference value :  2.60752e-04
 Reference value :  2.60753e-04
 Reference value :  2.60754e-04
 Reference value :  2.60755e-04
 Reference value :  2.60756e-04
 Reference value :  2.60759e-04
 Reference value :  2.60770e-04
 Reference value :  2.60850e-04
 Reference value :  2.61000e-04
 Reference value :  2.61000e-04
 Reference value :  2.61000e-04
 Reference value :  2.61000e-04
 Reference value :  2.61001e-04
 Reference value :  2.61003e-04
 Reference value :  2.61004e-04
 Reference value :  2.61006e-04
 Reference value :  2.61008e-04
 Reference value :  2.61010e-04
 Reference value :  2.61014e-04
 Reference value :  2.61017e-04
 Reference value :  2.61023e-04
 Reference value :  2.61029e-04
 Reference value :  2.61034e-04
 Reference value :  2.61039e-04
 Reference value :  2.61046e-04
 Reference value :  2.61055e-04
 Reference value :  2.61066e-04
 Reference value :  2.61094e-04
 Reference value :  2.61198e-04
 Reference value :  2.61250e-04
 Reference value :  2.61250e-04
 Reference value :  2.61250e-04
 Reference value :  2.61251e-04
 Reference value :  2.61252e-04
 Reference value :  2.61253e-04
 Reference value :  2.61254e-04
 Reference value :  2.61256e-04
 Reference value :  2.61262e-04
 Reference value :  2.61311e-04
 Reference value :  2.61429e-04
 Reference value :  2.61500e-04
 Reference value :  2.61500e-04
 Reference value :  2.61500e-04
 Reference value :  2.61500e-04
 Reference value :  2.61501e-04
 Reference value :  2.61503e-04
 Reference value :  2.61504e-04
 Reference value :  2.61505e-04
 Reference value :  2.61507e-04
 Reference value :  2.61509e-04
 Reference value :  2.61511e-04
 Reference value :  2.61519e-04
 Reference value :  2.61581e-04
 Reference value :  2.61750e-04
 Reference value :  2.61750e-04
 Reference value :  2.61750e-04
 Reference value :  2.61751e-04
 Reference value :  2.61752e-04
 Reference value :  2.61753e-04
 Reference value :  2.61754e-04
 Reference value :  2.61755e-04
 Reference value :  2.61756e-04
 Reference value :  2.61764e-04
 Reference value :  2.61850e-04
 Reference value :  2.62000e-04
 Reference value :  2.62000e-04
 Reference value :  2.62000e-04
 Reference value :  2.62001e-04
 Reference value :  2.62002e-04
 Reference value :  2.62003e-04
 Reference value :  2.62005e-04
 Reference value :  2.62007e-04
 Reference value :  2.62010e-04
 Reference value :  2.62013e-04
 Reference value :  2.62015e-04
 Reference value :  2.62017e-04
 Reference value :  2.62021e-04
 Reference value :  2.62032e-04
 Reference value :  2.62039e-04
 Reference value :  2.62052e-04
 Reference value :  2.62084e-04
 Reference value :  2.62183e-04
 Reference value :  2.62250e-04
 Reference value :  2.62250e-04
 Reference value :  2.62250e-04
 Reference value :  2.62251e-04
 Reference value :  2.62252e-04
 Reference value :  2.62253e-04
 Reference value :  2.62254e-04
 Reference value :  2.62255e-04
 Reference value :  2.62258e-04
 Reference value :  2.62272e-04
 Reference value :  2.62467e-04
 Reference value :  2.62500e-04
 Reference value :  2.62500e-04
 Reference value :  2.62500e-04
 Reference value :  2.62501e-04
 Reference value :  2.62502e-04
 Reference value :  2.62503e-04
 Reference value :  2.62504e-04
 Reference value :  2.62506e-04
 Reference value :  2.62507e-04
 Reference value :  2.62508e-04
 Reference value :  2.62511e-04
 Reference value :  2.62525e-04
 Reference value :  2.62665e-04
 Reference value :  2.62750e-04
 Reference value :  2.62750e-04
 Reference value :  2.62751e-04
 Reference value :  2.62751e-04
 Reference value :  2.62753e-04
 Reference value :  2.62754e-04
 Reference value :  2.62755e-04
 Reference value :  2.62756e-04
 Reference value :  2.62759e-04
 Reference value :  2.62764e-04
 Reference value :  2.62796e-04
 Reference value :  2.63000e-04
 Reference value :  2.63000e-04
 Reference value :  2.63000e-04
 Reference value :  2.63001e-04
 Reference value :  2.63002e-04
 Reference value :  2.63003e-04
 Reference value :  2.63005e-04
 Reference value :  2.63006e-04
 Reference value :  2.63007e-04
 Reference value :  2.63010e-04
 Reference value :  2.63018e-04
 Reference value :  2.63053e-04
 Reference value :  2.63096e-04
 Reference value :  2.63220e-04
 Reference value :  2.63250e-04
 Reference value :  2.63250e-04
 Reference value :  2.63251e-04
 Reference value :  2.63251e-04
 Reference value :  2.63253e-04
 Reference value :  2.63255e-04
 Reference value :  2.63259e-04
 Reference value :  2.63268e-04
 Reference value :  2.63335e-04
 Reference value :  2.63500e-04
 Reference value :  2.63500e-04
 Reference value :  2.63500e-04
 Reference value :  2.63501e-04
 Reference value :  2.63502e-04
 Reference value :  2.63503e-04
 Reference value :  2.63504e-04
 Reference value :  2.63506e-04
 Reference value :  2.63508e-04
 Reference value :  2.63520e-04
 Reference value :  2.63526e-04
 Reference value :  2.63531e-04
 Reference value :  2.63538e-04
 Reference value :  2.63544e-04
 Reference value :  2.63551e-04
 Reference value :  2.63566e-04
 Reference value :  2.63613e-04
 Reference value :  2.63746e-04
 Reference value :  2.63750e-04
 Reference value :  2.63750e-04
 Reference value :  2.63750e-04
 Reference value :  2.63751e-04
 Reference value :  2.63751e-04
 Reference value :  2.63753e-04
 Reference value :  2.63754e-04
 Reference value :  2.63755e-04
 Reference value :  2.63756e-04
 Reference value :  2.63762e-04
 Reference value :  2.63785e-04
 Reference value :  2.63976e-04
 Reference value :  2.64000e-04
 Reference value :  2.64000e-04
 Reference value :  2.64000e-04
 Reference value :  2.64001e-04
 Reference value :  2.64002e-04
 Reference value :  2.64003e-04
 Reference value :  2.64004e-04
 Reference value :  2.64006e-04
 Reference value :  2.64008e-04
 Reference value :  2.64011e-04
 Reference value :  2.64015e-04
 Reference value :  2.64021e-04
 Reference value :  2.64059e-04
 Reference value :  2.64250e-04
 Reference value :  2.64250e-04
 Reference value :  2.64250e-04
 Reference value :  2.64251e-04
 Reference value :  2.64252e-04
 Reference value :  2.64253e-04
 Reference value :  2.64254e-04
 Reference value :  2.64255e-04
 Reference value :  2.64257e-04
 Reference value :  2.64270e-04
 Reference value :  2.64442e-04
 Reference value :  2.64500e-04
 Reference value :  2.64500e-04
 Reference value :  2.64501e-04
 Reference value :  2.64503e-04
 Reference value :  2.64504e-04
 Reference value :  2.64507e-04
 Reference value :  2.64510e-04
 Reference value :  2.64514e-04
 Reference value :  2.64517e-04
 Reference value :  2.64522e-04
 Reference value :  2.64569e-04
 Reference value :  2.64750e-04
 Reference value :  2.64750e-04
 Reference value :  2.64751e-04
 Reference value :  2.64753e-04
 Reference value :  2.64754e-04
 Reference value :  2.64755e-04
 Reference value :  2.64758e-04
 Reference value :  2.64765e-04
 Reference value :  2.64871e-04
 Reference value :  2.65000e-04
 Reference value :  2.65000e-04
 Reference value :  2.65001e-04
 Reference value :  2.65002e-04
 Reference value :  2.65003e-04
 Reference value :  2.65005e-04
 Reference value :  2.65008e-04
 Reference value :  2.65011e-04
 Reference value :  2.65250e-04
 Reference value :  2.65250e-04
 Reference value :  2.65251e-04
 Reference value :  2.65251e-04
 Reference value :  2.65253e-04
 Reference value :  2.65254e-04
 Reference value :  2.65255e-04
 Reference value :  2.65256e-04
 Reference value :  2.65261e-04
 Reference value :  2.65281e-04
 Reference value :  2.65442e-04
 Reference value :  2.65500e-04
 Reference value :  2.65500e-04
 Reference value :  2.65500e-04
 Reference value :  2.65501e-04
 Reference value :  2.65502e-04
 Reference value :  2.65503e-04
 Reference value :  2.65504e-04
 Reference value :  2.65506e-04
 Reference value :  2.65508e-04
 Reference value :  2.65510e-04
 Reference value :  2.65513e-04
 Reference value :  2.65515e-04
 Reference value :  2.65517e-04
 Reference value :  2.65521e-04
 Reference value :  2.65532e-04
 Reference value :  2.65557e-04
 Reference value :  2.65569e-04
 Reference value :  2.65581e-04
 Reference value :  2.65593e-04
 Reference value :  2.65619e-04
 Reference value :  2.65723e-04
 Reference value :  2.65750e-04
 Reference value :  2.65750e-04
 Reference value :  2.65750e-04
 Reference value :  2.65751e-04
 Reference value :  2.65752e-04
 Reference value :  2.65753e-04
 Reference value :  2.65754e-04
 Reference value :  2.65756e-04
 Reference value :  2.65765e-04
 Reference value :  2.65863e-04
 Reference value :  2.66000e-04
 Reference value :  2.66000e-04
 Reference value :  2.66001e-04
 Reference value :  2.66002e-04
 Reference value :  2.66003e-04
 Reference value :  2.66005e-04
 Reference value :  2.66007e-04
 Reference value :  2.66008e-04
 Reference value :  2.66011e-04
 Reference value :  2.66025e-04
 Reference value :  2.66250e-04
 Reference value :  2.66250e-04
 Reference value :  2.66250e-04
 Reference value :  2.66252e-04
 Reference value :  2.66253e-04
 Reference value :  2.66254e-04
 Reference value :  2.66256e-04
 Reference value :  2.66262e-04
 Reference value :  2.66296e-04
 Reference value :  2.66500e-04
 Reference value :  2.66500e-04
 Reference value :  2.66501e-04
 Reference value :  2.66503e-04
 Reference value :  2.66506e-04
 Reference value :  2.66508e-04
 Reference value :  2.66511e-04
 Reference value :  2.66514e-04
 Reference value :  2.66516e-04
 Reference value :  2.66520e-04
 Reference value :  2.66527e-04
 Reference value :  2.66546e-04
 Reference value :  2.66558e-04
 Reference value :  2.66566e-04
 Reference value :  2.66583e-04
 Reference value :  2.66645e-04
 Reference value :  2.66750e-04
 Reference value :  2.66750e-04
 Reference value :  2.66750e-04
 Reference value :  2.66750e-04
 Reference value :  2.66752e-04
 Reference value :  2.66753e-04
 Reference value :  2.66754e-04
 Reference value :  2.66755e-04
 Reference value :  2.66756e-04
 Reference value :  2.66762e-04
 Reference value :  2.66787e-04
 Reference value :  2.67000e-04
 Reference value :  2.67000e-04
 Reference value :  2.67000e-04
 Reference value :  2.67000e-04
 Reference value :  2.67001e-04
 Reference value :  2.67002e-04
 Reference value :  2.67003e-04
 Reference value :  2.67004e-04
 Reference value :  2.67005e-04
 Reference value :  2.67007e-04
 Reference value :  2.67009e-04
 Reference value :  2.67011e-04
 Reference value :  2.67019e-04
 Reference value :  2.67081e-04
 Reference value :  2.67250e-04
 Reference value :  2.67250e-04
 Reference value :  2.67250e-04
 Reference value :  2.67250e-04
 Reference value :  2.67251e-04
 Reference value :  2.67252e-04
 Reference value :  2.67253e-04
 Reference value :  2.67254e-04
 Reference value :  2.67255e-04
 Reference value :  2.67256e-04
 Reference value :  2.67264e-04
 Reference value :  2.67350e-04
 Reference value :  2.67500e-04
 Reference value :  2.67500e-04
 Reference value :  2.67500e-04
 Reference value :  2.67500e-04
 Reference value :  2.67501e-04
 Reference value :  2.67502e-04
 Reference value :  2.67503e-04
 Reference value :  2.67504e-04
 Reference value :  2.67506e-04
 Reference value :  2.67507e-04
 Reference value :  2.67510e-04
 Reference value :  2.67513e-04
 Reference value :  2.67515e-04
 Reference value :  2.67517e-04
 Reference value :  2.67519e-04
 Reference value :  2.67527e-04
 Reference value :  2.67537e-04
 Reference value :  2.67541e-04
 Reference value :  2.67549e-04
 Reference value :  2.67561e-04
 Reference value :  2.67574e-04
 Reference value :  2.67611e-04
 Reference value :  2.67737e-04
 Reference value :  2.67750e-04
 Reference value :  2.67750e-04
 Reference value :  2.67750e-04
 Reference value :  2.67750e-04
 Reference value :  2.67751e-04
 Reference value :  2.67752e-04
 Reference value :  2.67753e-04
 Reference value :  2.67754e-04
 Reference value :  2.67755e-04
 Reference value :  2.67758e-04
 Reference value :  2.67765e-04
 Reference value :  2.67811e-04
 Reference value :  2.68000e-04
 Reference value :  2.68000e-04
 Reference value :  2.68000e-04
 Reference value :  2.68000e-04
 Reference value :  2.68000e-04
 Reference value :  2.68001e-04
 Reference value :  2.68001e-04
 Reference value :  2.68002e-04
 Reference value :  2.68003e-04
 Reference value :  2.68004e-04
 Reference value :  2.68006e-04
 Reference value :  2.68007e-04
 Reference value :  2.68008e-04
 Reference value :  2.68011e-04
 Reference value :  2.68025e-04
 Reference value :  2.68164e-04
 Reference value :  2.68250e-04
 Reference value :  2.68250e-04
 Reference value :  2.68250e-04
 Reference value :  2.68251e-04
 Reference value :  2.68252e-04
 Reference value :  2.68253e-04
 Reference value :  2.68254e-04
 Reference value :  2.68256e-04
 Reference value :  2.68260e-04
 Reference value :  2.68281e-04
 Reference value :  2.68500e-04
 Reference value :  2.68500e-04
 Reference value :  2.68500e-04
 Reference value :  2.68502e-04
 Reference value :  2.68504e-04
 Reference value :  2.68506e-04
 Reference value :  2.68508e-04
 Reference value :  2.68511e-04
 Reference value :  2.68513e-04
 Reference value :  2.68515e-04
 Reference value :  2.68519e-04
 Reference value :  2.68521e-04
 Reference value :  2.68528e-04
 Reference value :  2.68534e-04
 Reference value :  2.68546e-04
 Reference value :  2.68675e-04
 Reference value :  2.68750e-04
 Reference value :  2.68750e-04
 Reference value :  2.68752e-04
 Reference value :  2.68753e-04
 Reference value :  2.68754e-04
 Reference value :  2.68756e-04
 Reference value :  2.68759e-04
 Reference value :  2.68787e-04
 Reference value :  2.69000e-04
 Reference value :  2.69000e-04
 Reference value :  2.69000e-04
 Reference value :  2.69001e-04
 Reference value :  2.69003e-04
 Reference value :  2.69005e-04
 Reference value :  2.69007e-04
 Reference value :  2.69010e-04
 Reference value :  2.69028e-04
 Reference value :  2.69250e-04
 Reference value :  2.69250e-04
 Reference value :  2.69251e-04
 Reference value :  2.69252e-04
 Reference value :  2.69253e-04
 Reference value :  2.69254e-04
 Reference value :  2.69255e-04
 Reference value :  2.69257e-04
 Reference value :  2.69270e-04
 Reference value :  2.69500e-04
 Reference value :  2.69500e-04
 Reference value :  2.69500e-04
 Reference value :  2.69502e-04
 Reference value :  2.69503e-04
 Reference value :  2.69505e-04
 Reference value :  2.69507e-04
 Reference value :  2.69511e-04
 Reference value :  2.69514e-04
 Reference value :  2.69517e-04
 Reference value :  2.69521e-04
 Reference value :  2.69529e-04
 Reference value :  2.69539e-04
 Reference value :  2.69552e-04
 Reference value :  2.69588e-04
 Reference value :  2.69750e-04
 Reference value :  2.69750e-04
 Reference value :  2.69751e-04
 Reference value :  2.69752e-04
 Reference value :  2.69753e-04
 Reference value :  2.69754e-04
 Reference value :  2.69756e-04
 Reference value :  2.69762e-04
 Reference value :  2.69811e-04
 Reference value :  2.70000e-04
 Reference value :  2.70000e-04
 Reference value :  2.70000e-04
 Reference value :  2.70001e-04
 Reference value :  2.70002e-04
 Reference value :  2.70003e-04
 Reference value :  2.70005e-04
 Reference value :  2.70007e-04
 Reference value :  2.70009e-04
 Reference value :  2.70013e-04
 Reference value :  2.70091e-04
 Reference value :  2.70250e-04
 Reference value :  2.70250e-04
 Reference value :  2.70252e-04
 Reference value :  2.70254e-04
 Reference value :  2.70255e-04
 Reference value :  2.70259e-04
 Reference value :  2.70273e-04
 Reference value :  2.70500e-04
 Reference value :  2.70500e-04
 Reference value :  2.70501e-04
 Reference value :  2.70503e-04
 Reference value :  2.70505e-04
 Reference value :  2.70506e-04
 Reference value :  2.70510e-04
 Reference value :  2.70513e-04
 Reference value :  2.70516e-04
 Reference value :  2.70520e-04
 Reference value :  2.70537e-04
 Reference value :  2.70554e-04
 Reference value :  2.70575e-04
 Reference value :  2.70750e-04
 Reference value :  2.70750e-04
 Reference value :  2.70751e-04
 Reference value :  2.70751e-04
 Reference value :  2.70753e-04
 Reference value :  2.70754e-04
 Reference value :  2.70755e-04
 Reference value :  2.70758e-04
 Reference value :  2.70772e-04
 Reference value :  2.70983e-04
 Reference value :  2.71000e-04
 Reference value :  2.71000e-04
 Reference value :  2.71000e-04
 Reference value :  2.71001e-04
 Reference value :  2.71003e-04
 Reference value :  2.71004e-04
 Reference value :  2.71006e-04
 Reference value :  2.71008e-04
 Reference value :  2.71011e-04
 Reference value :  2.71028e-04
 Reference value :  2.71250e-04
 Reference value :  2.71250e-04
 Reference value :  2.71250e-04
 Reference value :  2.71251e-04
 Reference value :  2.71251e-04
 Reference value :  2.71253e-04
 Reference value :  2.71254e-04
 Reference value :  2.71255e-04
 Reference value :  2.71256e-04
 Reference value :  2.71261e-04
 Reference value :  2.71304e-04
 Reference value :  2.71500e-04
 Reference value :  2.71500e-04
 Reference value :  2.71500e-04
 Reference value :  2.71501e-04
 Reference value :  2.71501e-04
 Reference value :  2.71503e-04
 Reference value :  2.71504e-04
 Reference value :  2.71505e-04
 Reference value :  2.71507e-04
 Reference value :  2.71508e-04
 Reference value :  2.71510e-04
 Reference value :  2.71526e-04
 Reference value :  2.71750e-04
 Reference value :  2.71750e-04
 Reference value :  2.71750e-04
 Reference value :  2.71750e-04
 Reference value :  2.71751e-04
 Reference value :  2.71752e-04
 Reference value :  2.71753e-04
 Reference value :  2.71755e-04
 Reference value :  2.71759e-04
 Reference value :  2.71768e-04
 Reference value :  2.71835e-04
 Reference value :  2.71987e-04
No. of Data Rows : 38967
ngspice-44 done
