
Note: Compatibility modes selected: hs a


Circuit: ** sch_path: /home/samantha/cace/sar-adc-using-sky130-pdk/runs/run_2025-09-08_18-46-12/parameters/sampling_rate/run_2/sampling_rate.sch

option SCALE: Scale is set to 1e-06 for instance and model parameters
option SCALE: Scale is set to 1e-06 for instance and model parameters
option SCALE: Scale is set to 1e-06 for instance and model parameters
option SCALE: Scale is set to 1e-06 for instance and model parameters
Doing analysis at TEMP = 27.000000 and TNOM = 27.000000

Using KLU as Direct Linear Solver
Operating point simulation skipped by 'uic',
  now using transient initial conditions.
 Reference value :  1.00000e-12
 Reference value :  1.02772e-12
 Reference value :  1.08316e-12
 Reference value :  1.19404e-12
 Reference value :  1.33846e-12
 Reference value :  1.62729e-12
 Reference value :  2.20497e-12
 Reference value :  3.05048e-12
 Reference value :  3.95559e-12
 Reference value :  5.17243e-12
 Reference value :  6.90317e-12
 Reference value :  1.02209e-11
 Reference value :  1.39200e-11
 Reference value :  2.08149e-11
 Reference value :  2.76076e-11
 Reference value :  3.67153e-11
 Reference value :  4.77902e-11
 Reference value :  6.49134e-11
 Reference value :  8.50918e-11
 Reference value :  1.00000e-10
 Reference value :  1.01245e-10
 Reference value :  1.03734e-10
 Reference value :  1.08712e-10
 Reference value :  1.18668e-10
 Reference value :  1.38580e-10
 Reference value :  1.78405e-10
 Reference value :  2.58055e-10
 Reference value :  4.09840e-10
 Reference value :  5.74588e-10
 Reference value :  8.42491e-10
 Reference value :  1.20487e-09
 Reference value :  1.63134e-09
 Reference value :  2.29126e-09
 Reference value :  2.96786e-09
 Reference value :  4.03822e-09
 Reference value :  4.86036e-09
 Reference value :  5.73256e-09
 Reference value :  6.98766e-09
 Reference value :  8.11946e-09
 Reference value :  9.41210e-09
 Reference value :  1.03810e-08
 Reference value :  1.13147e-08
 Reference value :  1.21965e-08
 Reference value :  1.31268e-08
 Reference value :  1.48611e-08
 Reference value :  1.70745e-08
 Reference value :  2.09634e-08
 Reference value :  2.46905e-08
 Reference value :  2.80156e-08
 Reference value :  3.10927e-08
 Reference value :  3.42484e-08
 Reference value :  3.81544e-08
 Reference value :  4.42210e-08
 Reference value :  5.13811e-08
 Reference value :  6.55063e-08
 Reference value :  8.95222e-08
 Reference value :  1.34553e-07
 Reference value :  1.95175e-07
 Reference value :  2.50100e-07
 Reference value :  2.50110e-07
 Reference value :  2.50130e-07
 Reference value :  2.50170e-07
 Reference value :  2.50200e-07
 Reference value :  2.50201e-07
 Reference value :  2.50202e-07
 Reference value :  2.50204e-07
 Reference value :  2.50208e-07
 Reference value :  2.50216e-07
 Reference value :  2.50233e-07
 Reference value :  2.50267e-07
 Reference value :  2.50334e-07
 Reference value :  2.50416e-07
 Reference value :  2.50578e-07
 Reference value :  2.50740e-07
 Reference value :  2.51064e-07
 Reference value :  2.51433e-07
 Reference value :  2.52000e-07
 Reference value :  2.52605e-07
 Reference value :  2.53305e-07
 Reference value :  2.54251e-07
 Reference value :  2.55267e-07
 Reference value :  2.56209e-07
 Reference value :  2.57137e-07
 Reference value :  2.58161e-07
 Reference value :  2.59137e-07
 Reference value :  2.60806e-07
 Reference value :  2.63151e-07
 Reference value :  2.65566e-07
 Reference value :  2.69724e-07
 Reference value :  2.75757e-07
 Reference value :  2.87822e-07
 Reference value :  3.11952e-07
 Reference value :  3.56894e-07
 Reference value :  4.46777e-07
 Reference value :  5.00000e-07
 Reference value :  5.00010e-07
 Reference value :  5.00030e-07
 Reference value :  5.00070e-07
 Reference value :  5.00100e-07
 Reference value :  5.00104e-07
 Reference value :  5.00113e-07
 Reference value :  5.00130e-07
 Reference value :  5.00164e-07
 Reference value :  5.00231e-07
 Reference value :  5.00367e-07
 Reference value :  5.00555e-07
 Reference value :  5.00931e-07
 Reference value :  5.01441e-07
 Reference value :  5.01988e-07
 Reference value :  5.02572e-07
 Reference value :  5.03299e-07
 Reference value :  5.03988e-07
 Reference value :  5.04868e-07
 Reference value :  5.05732e-07
 Reference value :  5.06712e-07
 Reference value :  5.07962e-07
 Reference value :  5.09473e-07
 Reference value :  5.11506e-07
 Reference value :  5.13937e-07
 Reference value :  5.15835e-07
 Reference value :  5.17886e-07
 Reference value :  5.20500e-07
 Reference value :  5.23122e-07
 Reference value :  5.25908e-07
 Reference value :  5.31217e-07
 Reference value :  5.38396e-07
 Reference value :  5.48661e-07
 Reference value :  5.58486e-07
 Reference value :  5.70134e-07
 Reference value :  5.78269e-07
 Reference value :  5.87155e-07
 Reference value :  5.94130e-07
 Reference value :  6.01394e-07
 Reference value :  6.08390e-07
 Reference value :  6.15761e-07
 Reference value :  6.30503e-07
 Reference value :  6.50797e-07
 Reference value :  6.83615e-07
 Reference value :  7.39892e-07
 Reference value :  7.50100e-07
 Reference value :  7.50110e-07
 Reference value :  7.50130e-07
 Reference value :  7.50170e-07
 Reference value :  7.50200e-07
 Reference value :  7.50201e-07
 Reference value :  7.50202e-07
 Reference value :  7.50205e-07
 Reference value :  7.50211e-07
 Reference value :  7.50224e-07
 Reference value :  7.50248e-07
 Reference value :  7.50296e-07
 Reference value :  7.50393e-07
 Reference value :  7.50588e-07
 Reference value :  7.50969e-07
 Reference value :  7.51488e-07
 Reference value :  7.52156e-07
 Reference value :  7.52798e-07
 Reference value :  7.53554e-07
 Reference value :  7.54601e-07
 Reference value :  7.55354e-07
 Reference value :  7.56207e-07
 Reference value :  7.56964e-07
 Reference value :  7.57803e-07
 Reference value :  7.58844e-07
 Reference value :  7.59982e-07
 Reference value :  7.61151e-07
 Reference value :  7.62826e-07
 Reference value :  7.64645e-07
 Reference value :  7.67207e-07
 Reference value :  7.70393e-07
 Reference value :  7.75085e-07
 Reference value :  7.84467e-07
 Reference value :  7.99110e-07
 Reference value :  8.28397e-07
 Reference value :  8.86970e-07
 Reference value :  1.00000e-06
 Reference value :  1.00001e-06
 Reference value :  1.00003e-06
 Reference value :  1.00007e-06
 Reference value :  1.00010e-06
 Reference value :  1.00010e-06
 Reference value :  1.00011e-06
 Reference value :  1.00013e-06
 Reference value :  1.00016e-06
 Reference value :  1.00023e-06
 Reference value :  1.00037e-06
 Reference value :  1.00055e-06
 Reference value :  1.00093e-06
 Reference value :  1.00144e-06
 Reference value :  1.00198e-06
 Reference value :  1.00256e-06
 Reference value :  1.00321e-06
 Reference value :  1.00388e-06
 Reference value :  1.00466e-06
 Reference value :  1.00549e-06
 Reference value :  1.00634e-06
 Reference value :  1.00715e-06
 Reference value :  1.00799e-06
 Reference value :  1.00892e-06
 Reference value :  1.00981e-06
 Reference value :  1.01106e-06
 Reference value :  1.01269e-06
 Reference value :  1.01517e-06
 Reference value :  1.01678e-06
 Reference value :  1.01863e-06
 Reference value :  1.02039e-06
 Reference value :  1.02209e-06
 Reference value :  1.02346e-06
 Reference value :  1.02492e-06
 Reference value :  1.02641e-06
 Reference value :  1.02819e-06
 Reference value :  1.03006e-06
 Reference value :  1.03270e-06
 Reference value :  1.03615e-06
 Reference value :  1.04269e-06
 Reference value :  1.05099e-06
 Reference value :  1.06494e-06
 Reference value :  1.08353e-06
 Reference value :  1.10152e-06
 Reference value :  1.12022e-06
 Reference value :  1.13270e-06
 Reference value :  1.14477e-06
 Reference value :  1.15794e-06
 Reference value :  1.17174e-06
 Reference value :  1.18826e-06
 Reference value :  1.21263e-06
 Reference value :  1.24024e-06
 Reference value :  1.25010e-06
 Reference value :  1.25011e-06
 Reference value :  1.25013e-06
 Reference value :  1.25017e-06
 Reference value :  1.25020e-06
 Reference value :  1.25020e-06
 Reference value :  1.25020e-06
 Reference value :  1.25021e-06
 Reference value :  1.25021e-06
 Reference value :  1.25022e-06
 Reference value :  1.25025e-06
 Reference value :  1.25029e-06
 Reference value :  1.25039e-06
 Reference value :  1.25058e-06
 Reference value :  1.25091e-06
 Reference value :  1.25146e-06
 Reference value :  1.25208e-06
 Reference value :  1.25276e-06
 Reference value :  1.25349e-06
 Reference value :  1.25452e-06
 Reference value :  1.25527e-06
 Reference value :  1.25613e-06
 Reference value :  1.25702e-06
 Reference value :  1.25795e-06
 Reference value :  1.25926e-06
 Reference value :  1.26111e-06
 Reference value :  1.26330e-06
 Reference value :  1.26653e-06
 Reference value :  1.27082e-06
 Reference value :  1.27939e-06
 Reference value :  1.29654e-06
 Reference value :  1.32638e-06
 Reference value :  1.38606e-06
 Reference value :  1.49977e-06
 Reference value :  1.50000e-06
 Reference value :  1.50000e-06
 Reference value :  1.50001e-06
 Reference value :  1.50002e-06
 Reference value :  1.50005e-06
 Reference value :  1.50010e-06
 Reference value :  1.50011e-06
 Reference value :  1.50012e-06
 Reference value :  1.50014e-06
 Reference value :  1.50018e-06
 Reference value :  1.50027e-06
 Reference value :  1.50042e-06
 Reference value :  1.50065e-06
 Reference value :  1.50111e-06
 Reference value :  1.50173e-06
 Reference value :  1.50236e-06
 Reference value :  1.50299e-06
 Reference value :  1.50372e-06
 Reference value :  1.50451e-06
 Reference value :  1.50533e-06
 Reference value :  1.50630e-06
 Reference value :  1.50741e-06
 Reference value :  1.50867e-06
 Reference value :  1.50993e-06
 Reference value :  1.51123e-06
 Reference value :  1.51258e-06
 Reference value :  1.51424e-06
 Reference value :  1.51603e-06
 Reference value :  1.51768e-06
 Reference value :  1.52002e-06
 Reference value :  1.52244e-06
 Reference value :  1.52659e-06
 Reference value :  1.53270e-06
 Reference value :  1.54281e-06
 Reference value :  1.56097e-06
 Reference value :  1.59156e-06
 Reference value :  1.64756e-06
 Reference value :  1.74671e-06
 Reference value :  1.75010e-06
 Reference value :  1.75011e-06
 Reference value :  1.75013e-06
 Reference value :  1.75017e-06
 Reference value :  1.75020e-06
 Reference value :  1.75020e-06
 Reference value :  1.75020e-06
 Reference value :  1.75021e-06
 Reference value :  1.75021e-06
 Reference value :  1.75022e-06
 Reference value :  1.75025e-06
 Reference value :  1.75030e-06
 Reference value :  1.75039e-06
 Reference value :  1.75059e-06
 Reference value :  1.75093e-06
 Reference value :  1.75147e-06
 Reference value :  1.75211e-06
 Reference value :  1.75276e-06
 Reference value :  1.75350e-06
 Reference value :  1.75452e-06
 Reference value :  1.75526e-06
 Reference value :  1.75610e-06
 Reference value :  1.75684e-06
 Reference value :  1.75767e-06
 Reference value :  1.75868e-06
 Reference value :  1.75979e-06
 Reference value :  1.76203e-06
 Reference value :  1.76440e-06
 Reference value :  1.76838e-06
 Reference value :  1.77337e-06
 Reference value :  1.78333e-06
 Reference value :  1.80326e-06
 Reference value :  1.84311e-06
 Reference value :  1.92283e-06
 Reference value :  2.00000e-06
 Reference value :  2.00001e-06
 Reference value :  2.00003e-06
 Reference value :  2.00007e-06
 Reference value :  2.00010e-06
 Reference value :  2.00010e-06
 Reference value :  2.00011e-06
 Reference value :  2.00013e-06
 Reference value :  2.00016e-06
 Reference value :  2.00023e-06
 Reference value :  2.00037e-06
 Reference value :  2.00054e-06
 Reference value :  2.00090e-06
 Reference value :  2.00141e-06
 Reference value :  2.00196e-06
 Reference value :  2.00255e-06
 Reference value :  2.00320e-06
 Reference value :  2.00387e-06
 Reference value :  2.00463e-06
 Reference value :  2.00545e-06
 Reference value :  2.00635e-06
 Reference value :  2.00728e-06
 Reference value :  2.00814e-06
 Reference value :  2.00905e-06
 Reference value :  2.01000e-06
 Reference value :  2.01123e-06
 Reference value :  2.01292e-06
 Reference value :  2.01555e-06
 Reference value :  2.01806e-06
 Reference value :  2.02023e-06
 Reference value :  2.02202e-06
 Reference value :  2.02374e-06
 Reference value :  2.02560e-06
 Reference value :  2.02732e-06
 Reference value :  2.02946e-06
 Reference value :  2.03163e-06
 Reference value :  2.03428e-06
 Reference value :  2.03811e-06
 Reference value :  2.04348e-06
 Reference value :  2.05204e-06
 Reference value :  2.06558e-06
 Reference value :  2.08756e-06
 Reference value :  2.11994e-06
 Reference value :  2.17606e-06
 Reference value :  2.24144e-06
 Reference value :  2.25010e-06
 Reference value :  2.25011e-06
 Reference value :  2.25013e-06
 Reference value :  2.25017e-06
 Reference value :  2.25020e-06
 Reference value :  2.25020e-06
 Reference value :  2.25020e-06
 Reference value :  2.25021e-06
 Reference value :  2.25021e-06
 Reference value :  2.25022e-06
 Reference value :  2.25025e-06
 Reference value :  2.25030e-06
 Reference value :  2.25039e-06
 Reference value :  2.25059e-06
 Reference value :  2.25093e-06
 Reference value :  2.25146e-06
 Reference value :  2.25210e-06
 Reference value :  2.25276e-06
 Reference value :  2.25350e-06
 Reference value :  2.25452e-06
 Reference value :  2.25527e-06
 Reference value :  2.25613e-06
 Reference value :  2.25701e-06
 Reference value :  2.25793e-06
 Reference value :  2.25923e-06
 Reference value :  2.26104e-06
 Reference value :  2.26323e-06
 Reference value :  2.26642e-06
 Reference value :  2.27069e-06
 Reference value :  2.27923e-06
 Reference value :  2.29631e-06
 Reference value :  2.32588e-06
 Reference value :  2.38503e-06
 Reference value :  2.47674e-06
 Reference value :  2.50000e-06
 Reference value :  2.50001e-06
 Reference value :  2.50003e-06
 Reference value :  2.50007e-06
 Reference value :  2.50010e-06
 Reference value :  2.50010e-06
 Reference value :  2.50011e-06
 Reference value :  2.50013e-06
 Reference value :  2.50016e-06
 Reference value :  2.50023e-06
 Reference value :  2.50037e-06
 Reference value :  2.50054e-06
 Reference value :  2.50090e-06
 Reference value :  2.50141e-06
 Reference value :  2.50196e-06
 Reference value :  2.50255e-06
 Reference value :  2.50319e-06
 Reference value :  2.50387e-06
 Reference value :  2.50464e-06
 Reference value :  2.50546e-06
 Reference value :  2.50637e-06
 Reference value :  2.50755e-06
 Reference value :  2.50880e-06
 Reference value :  2.51007e-06
 Reference value :  2.51146e-06
 Reference value :  2.51301e-06
 Reference value :  2.51459e-06
 Reference value :  2.51618e-06
 Reference value :  2.51784e-06
 Reference value :  2.51968e-06
 Reference value :  2.52337e-06
 Reference value :  2.53073e-06
 Reference value :  2.54377e-06
 Reference value :  2.56984e-06
 Reference value :  2.62197e-06
 Reference value :  2.72625e-06
 Reference value :  2.75010e-06
 Reference value :  2.75011e-06
 Reference value :  2.75013e-06
 Reference value :  2.75017e-06
 Reference value :  2.75020e-06
 Reference value :  2.75020e-06
 Reference value :  2.75020e-06
 Reference value :  2.75021e-06
 Reference value :  2.75021e-06
 Reference value :  2.75022e-06
 Reference value :  2.75025e-06
 Reference value :  2.75029e-06
 Reference value :  2.75039e-06
 Reference value :  2.75058e-06
 Reference value :  2.75091e-06
 Reference value :  2.75145e-06
 Reference value :  2.75208e-06
 Reference value :  2.75275e-06
 Reference value :  2.75348e-06
 Reference value :  2.75450e-06
 Reference value :  2.75524e-06
 Reference value :  2.75609e-06
 Reference value :  2.75683e-06
 Reference value :  2.75766e-06
 Reference value :  2.75866e-06
 Reference value :  2.75978e-06
 Reference value :  2.76202e-06
 Reference value :  2.76438e-06
 Reference value :  2.76836e-06
 Reference value :  2.77331e-06
 Reference value :  2.78320e-06
 Reference value :  2.80299e-06
 Reference value :  2.84219e-06
 Reference value :  2.92059e-06
 Reference value :  3.00000e-06
 Reference value :  3.00001e-06
 Reference value :  3.00003e-06
 Reference value :  3.00007e-06
 Reference value :  3.00010e-06
 Reference value :  3.00010e-06
 Reference value :  3.00011e-06
 Reference value :  3.00013e-06
 Reference value :  3.00016e-06
 Reference value :  3.00023e-06
 Reference value :  3.00037e-06
 Reference value :  3.00054e-06
 Reference value :  3.00090e-06
 Reference value :  3.00141e-06
 Reference value :  3.00196e-06
 Reference value :  3.00255e-06
 Reference value :  3.00319e-06
 Reference value :  3.00387e-06
 Reference value :  3.00463e-06
 Reference value :  3.00545e-06
 Reference value :  3.00630e-06
 Reference value :  3.00723e-06
 Reference value :  3.00809e-06
 Reference value :  3.00900e-06
 Reference value :  3.00994e-06
 Reference value :  3.01117e-06
 Reference value :  3.01284e-06
 Reference value :  3.01546e-06
 Reference value :  3.01792e-06
 Reference value :  3.02008e-06
 Reference value :  3.02179e-06
 Reference value :  3.02340e-06
 Reference value :  3.02524e-06
 Reference value :  3.02691e-06
 Reference value :  3.02883e-06
 Reference value :  3.03082e-06
 Reference value :  3.03367e-06
 Reference value :  3.03737e-06
 Reference value :  3.04398e-06
 Reference value :  3.05501e-06
 Reference value :  3.07235e-06
 Reference value :  3.09871e-06
 Reference value :  3.12286e-06
 Reference value :  3.14503e-06
 Reference value :  3.16031e-06
 Reference value :  3.17505e-06
 Reference value :  3.18435e-06
 Reference value :  3.19654e-06
 Reference value :  3.21713e-06
 Reference value :  3.23846e-06
 Reference value :  3.25010e-06
 Reference value :  3.25011e-06
 Reference value :  3.25013e-06
 Reference value :  3.25017e-06
 Reference value :  3.25020e-06
 Reference value :  3.25020e-06
 Reference value :  3.25020e-06
 Reference value :  3.25021e-06
 Reference value :  3.25021e-06
 Reference value :  3.25022e-06
 Reference value :  3.25025e-06
 Reference value :  3.25029e-06
 Reference value :  3.25039e-06
 Reference value :  3.25058e-06
 Reference value :  3.25091e-06
 Reference value :  3.25145e-06
 Reference value :  3.25208e-06
 Reference value :  3.25275e-06
 Reference value :  3.25348e-06
 Reference value :  3.25450e-06
 Reference value :  3.25524e-06
 Reference value :  3.25610e-06
 Reference value :  3.25697e-06
 Reference value :  3.25789e-06
 Reference value :  3.25920e-06
 Reference value :  3.26096e-06
 Reference value :  3.26318e-06
 Reference value :  3.26628e-06
 Reference value :  3.27011e-06
 Reference value :  3.27411e-06
 Reference value :  3.28209e-06
 Reference value :  3.29806e-06
 Reference value :  3.32384e-06
 Reference value :  3.37539e-06
 Reference value :  3.44226e-06
 Reference value :  3.50000e-06
 Reference value :  3.50001e-06
 Reference value :  3.50003e-06
 Reference value :  3.50007e-06
 Reference value :  3.50010e-06
 Reference value :  3.50010e-06
 Reference value :  3.50011e-06
 Reference value :  3.50013e-06
 Reference value :  3.50016e-06
 Reference value :  3.50023e-06
 Reference value :  3.50037e-06
 Reference value :  3.50055e-06
 Reference value :  3.50091e-06
 Reference value :  3.50142e-06
 Reference value :  3.50197e-06
 Reference value :  3.50255e-06
 Reference value :  3.50320e-06
 Reference value :  3.50387e-06
 Reference value :  3.50464e-06
 Reference value :  3.50546e-06
 Reference value :  3.50632e-06
 Reference value :  3.50753e-06
 Reference value :  3.50873e-06
 Reference value :  3.51002e-06
 Reference value :  3.51146e-06
 Reference value :  3.51294e-06
 Reference value :  3.51435e-06
 Reference value :  3.51584e-06
 Reference value :  3.51734e-06
 Reference value :  3.51909e-06
 Reference value :  3.52257e-06
 Reference value :  3.52859e-06
 Reference value :  3.54063e-06
 Reference value :  3.56471e-06
 Reference value :  3.61287e-06
 Reference value :  3.70919e-06
 Reference value :  3.75010e-06
 Reference value :  3.75011e-06
 Reference value :  3.75013e-06
 Reference value :  3.75017e-06
 Reference value :  3.75020e-06
 Reference value :  3.75020e-06
 Reference value :  3.75020e-06
 Reference value :  3.75021e-06
 Reference value :  3.75021e-06
 Reference value :  3.75022e-06
 Reference value :  3.75025e-06
 Reference value :  3.75029e-06
 Reference value :  3.75039e-06
 Reference value :  3.75058e-06
 Reference value :  3.75091e-06
 Reference value :  3.75145e-06
 Reference value :  3.75208e-06
 Reference value :  3.75275e-06
 Reference value :  3.75348e-06
 Reference value :  3.75450e-06
 Reference value :  3.75523e-06
 Reference value :  3.75608e-06
 Reference value :  3.75682e-06
 Reference value :  3.75765e-06
 Reference value :  3.75865e-06
 Reference value :  3.75977e-06
 Reference value :  3.76200e-06
 Reference value :  3.76436e-06
 Reference value :  3.76833e-06
 Reference value :  3.77325e-06
 Reference value :  3.78309e-06
 Reference value :  3.80278e-06
 Reference value :  3.84140e-06
 Reference value :  3.91864e-06
 Reference value :  4.00000e-06
 Reference value :  4.00001e-06
 Reference value :  4.00003e-06
 Reference value :  4.00007e-06
 Reference value :  4.00010e-06
 Reference value :  4.00010e-06
 Reference value :  4.00011e-06
 Reference value :  4.00013e-06
 Reference value :  4.00016e-06
 Reference value :  4.00023e-06
 Reference value :  4.00037e-06
 Reference value :  4.00054e-06
 Reference value :  4.00090e-06
 Reference value :  4.00141e-06
 Reference value :  4.00196e-06
 Reference value :  4.00255e-06
 Reference value :  4.00320e-06
 Reference value :  4.00387e-06
 Reference value :  4.00463e-06
 Reference value :  4.00545e-06
 Reference value :  4.00635e-06
 Reference value :  4.00728e-06
 Reference value :  4.00808e-06
 Reference value :  4.00904e-06
 Reference value :  4.00996e-06
 Reference value :  4.01119e-06
 Reference value :  4.01292e-06
 Reference value :  4.01527e-06
 Reference value :  4.01786e-06
 Reference value :  4.02004e-06
 Reference value :  4.02176e-06
 Reference value :  4.02338e-06
 Reference value :  4.02524e-06
 Reference value :  4.02693e-06
 Reference value :  4.02911e-06
 Reference value :  4.03111e-06
 Reference value :  4.03391e-06
 Reference value :  4.03762e-06
 Reference value :  4.04347e-06
 Reference value :  4.04878e-06
 Reference value :  4.05290e-06
 Reference value :  4.05838e-06
 Reference value :  4.06403e-06
 Reference value :  4.06812e-06
 Reference value :  4.07241e-06
 Reference value :  4.07721e-06
 Reference value :  4.08239e-06
 Reference value :  4.08978e-06
 Reference value :  4.09658e-06
 Reference value :  4.10396e-06
 Reference value :  4.11275e-06
 Reference value :  4.12951e-06
 Reference value :  4.14906e-06
 Reference value :  4.18216e-06
 Reference value :  4.23066e-06
 Reference value :  4.25010e-06
 Reference value :  4.25011e-06
 Reference value :  4.25013e-06
 Reference value :  4.25017e-06
 Reference value :  4.25020e-06
 Reference value :  4.25020e-06
 Reference value :  4.25020e-06
 Reference value :  4.25021e-06
 Reference value :  4.25021e-06
 Reference value :  4.25022e-06
 Reference value :  4.25025e-06
 Reference value :  4.25030e-06
 Reference value :  4.25039e-06
 Reference value :  4.25059e-06
 Reference value :  4.25093e-06
 Reference value :  4.25146e-06
 Reference value :  4.25210e-06
 Reference value :  4.25276e-06
 Reference value :  4.25349e-06
 Reference value :  4.25451e-06
 Reference value :  4.25522e-06
 Reference value :  4.25604e-06
 Reference value :  4.25694e-06
 Reference value :  4.25786e-06
 Reference value :  4.25910e-06
 Reference value :  4.26107e-06
 Reference value :  4.26323e-06
 Reference value :  4.26639e-06
 Reference value :  4.27062e-06
 Reference value :  4.27909e-06
 Reference value :  4.29603e-06
 Reference value :  4.32535e-06
 Reference value :  4.38399e-06
 Reference value :  4.50000e-06
 Reference value :  4.50001e-06
 Reference value :  4.50003e-06
 Reference value :  4.50007e-06
 Reference value :  4.50010e-06
 Reference value :  4.50010e-06
 Reference value :  4.50011e-06
 Reference value :  4.50013e-06
 Reference value :  4.50016e-06
 Reference value :  4.50023e-06
 Reference value :  4.50037e-06
 Reference value :  4.50055e-06
 Reference value :  4.50091e-06
 Reference value :  4.50142e-06
 Reference value :  4.50197e-06
 Reference value :  4.50251e-06
 Reference value :  4.50321e-06
 Reference value :  4.50385e-06
 Reference value :  4.50462e-06
 Reference value :  4.50544e-06
 Reference value :  4.50629e-06
 Reference value :  4.50753e-06
 Reference value :  4.50871e-06
 Reference value :  4.50998e-06
 Reference value :  4.51140e-06
 Reference value :  4.51288e-06
 Reference value :  4.51428e-06
 Reference value :  4.51575e-06
 Reference value :  4.51731e-06
 Reference value :  4.51910e-06
 Reference value :  4.52245e-06
 Reference value :  4.52739e-06
 Reference value :  4.53727e-06
 Reference value :  4.55665e-06
 Reference value :  4.59382e-06
 Reference value :  4.66817e-06
 Reference value :  4.75010e-06
 Reference value :  4.75011e-06
 Reference value :  4.75013e-06
 Reference value :  4.75017e-06
 Reference value :  4.75020e-06
 Reference value :  4.75020e-06
 Reference value :  4.75020e-06
 Reference value :  4.75021e-06
 Reference value :  4.75021e-06
 Reference value :  4.75022e-06
 Reference value :  4.75025e-06
 Reference value :  4.75029e-06
 Reference value :  4.75039e-06
 Reference value :  4.75058e-06
 Reference value :  4.75091e-06
 Reference value :  4.75145e-06
 Reference value :  4.75208e-06
 Reference value :  4.75274e-06
 Reference value :  4.75347e-06
 Reference value :  4.75449e-06
 Reference value :  4.75522e-06
 Reference value :  4.75608e-06
 Reference value :  4.75682e-06
 Reference value :  4.75765e-06
 Reference value :  4.75865e-06
 Reference value :  4.75977e-06
 Reference value :  4.76090e-06
 Reference value :  4.76257e-06
 Reference value :  4.76441e-06
 Reference value :  4.76692e-06
 Reference value :  4.77010e-06
 Reference value :  4.77469e-06
 Reference value :  4.78388e-06
 Reference value :  4.79907e-06
 Reference value :  4.82947e-06
 Reference value :  4.89025e-06
 Reference value :  5.00000e-06
 Reference value :  5.00001e-06
 Reference value :  5.00003e-06
 Reference value :  5.00007e-06
 Reference value :  5.00010e-06
 Reference value :  5.00010e-06
 Reference value :  5.00011e-06
 Reference value :  5.00013e-06
 Reference value :  5.00016e-06
 Reference value :  5.00023e-06
 Reference value :  5.00037e-06
 Reference value :  5.00054e-06
 Reference value :  5.00090e-06
 Reference value :  5.00141e-06
 Reference value :  5.00196e-06
 Reference value :  5.00254e-06
 Reference value :  5.00320e-06
 Reference value :  5.00388e-06
 Reference value :  5.00465e-06
 Reference value :  5.00546e-06
 Reference value :  5.00626e-06
 Reference value :  5.00708e-06
 Reference value :  5.00788e-06
 Reference value :  5.00879e-06
 Reference value :  5.00968e-06
 Reference value :  5.01088e-06
 Reference value :  5.01254e-06
 Reference value :  5.01381e-06
 Reference value :  5.01520e-06
 Reference value :  5.01658e-06
 Reference value :  5.01816e-06
 Reference value :  5.01962e-06
 Reference value :  5.02083e-06
 Reference value :  5.02200e-06
 Reference value :  5.02345e-06
 Reference value :  5.02485e-06
 Reference value :  5.02624e-06
 Reference value :  5.02812e-06
 Reference value :  5.02984e-06
 Reference value :  5.03275e-06
 Reference value :  5.03617e-06
 Reference value :  5.04170e-06
 Reference value :  5.04874e-06
 Reference value :  5.05539e-06
 Reference value :  5.06133e-06
 Reference value :  5.06557e-06
 Reference value :  5.06987e-06
 Reference value :  5.07399e-06
 Reference value :  5.07852e-06
 Reference value :  5.08714e-06
 Reference value :  5.09631e-06
 Reference value :  5.11190e-06
 Reference value :  5.13379e-06
 Reference value :  5.16173e-06
 Reference value :  5.18825e-06
 Reference value :  5.20334e-06
 Reference value :  5.22075e-06
 Reference value :  5.23542e-06
 Reference value :  5.25010e-06
 Reference value :  5.25011e-06
 Reference value :  5.25013e-06
 Reference value :  5.25017e-06
 Reference value :  5.25020e-06
 Reference value :  5.25020e-06
 Reference value :  5.25020e-06
 Reference value :  5.25021e-06
 Reference value :  5.25021e-06
 Reference value :  5.25022e-06
 Reference value :  5.25025e-06
 Reference value :  5.25029e-06
 Reference value :  5.25039e-06
 Reference value :  5.25058e-06
 Reference value :  5.25092e-06
 Reference value :  5.25145e-06
 Reference value :  5.25208e-06
 Reference value :  5.25274e-06
 Reference value :  5.25347e-06
 Reference value :  5.25449e-06
 Reference value :  5.25521e-06
 Reference value :  5.25604e-06
 Reference value :  5.25692e-06
 Reference value :  5.25784e-06
 Reference value :  5.25910e-06
 Reference value :  5.26095e-06
 Reference value :  5.26312e-06
 Reference value :  5.26620e-06
 Reference value :  5.27044e-06
 Reference value :  5.27891e-06
 Reference value :  5.29570e-06
 Reference value :  5.32456e-06
 Reference value :  5.38227e-06
 Reference value :  5.45323e-06
 Reference value :  5.50000e-06
 Reference value :  5.50001e-06
 Reference value :  5.50003e-06
 Reference value :  5.50007e-06
 Reference value :  5.50010e-06
 Reference value :  5.50010e-06
 Reference value :  5.50011e-06
 Reference value :  5.50013e-06
 Reference value :  5.50016e-06
 Reference value :  5.50023e-06
 Reference value :  5.50037e-06
 Reference value :  5.50054e-06
 Reference value :  5.50090e-06
 Reference value :  5.50141e-06
 Reference value :  5.50196e-06
 Reference value :  5.50251e-06
 Reference value :  5.50321e-06
 Reference value :  5.50385e-06
 Reference value :  5.50462e-06
 Reference value :  5.50544e-06
 Reference value :  5.50635e-06
 Reference value :  5.50757e-06
 Reference value :  5.50880e-06
 Reference value :  5.51004e-06
 Reference value :  5.51138e-06
 Reference value :  5.51302e-06
 Reference value :  5.51452e-06
 Reference value :  5.51606e-06
 Reference value :  5.51784e-06
 Reference value :  5.51982e-06
 Reference value :  5.52325e-06
 Reference value :  5.52829e-06
 Reference value :  5.53755e-06
 Reference value :  5.55458e-06
 Reference value :  5.58559e-06
 Reference value :  5.64613e-06
 Reference value :  5.75010e-06
 Reference value :  5.75011e-06
 Reference value :  5.75013e-06
 Reference value :  5.75017e-06
 Reference value :  5.75020e-06
 Reference value :  5.75020e-06
 Reference value :  5.75020e-06
 Reference value :  5.75021e-06
 Reference value :  5.75021e-06
 Reference value :  5.75022e-06
 Reference value :  5.75025e-06
 Reference value :  5.75029e-06
 Reference value :  5.75039e-06
 Reference value :  5.75058e-06
 Reference value :  5.75091e-06
 Reference value :  5.75145e-06
 Reference value :  5.75208e-06
 Reference value :  5.75274e-06
 Reference value :  5.75347e-06
 Reference value :  5.75449e-06
 Reference value :  5.75523e-06
 Reference value :  5.75609e-06
 Reference value :  5.75684e-06
 Reference value :  5.75766e-06
 Reference value :  5.75867e-06
 Reference value :  5.75979e-06
 Reference value :  5.76094e-06
 Reference value :  5.76259e-06
 Reference value :  5.76448e-06
 Reference value :  5.76699e-06
 Reference value :  5.77022e-06
 Reference value :  5.77485e-06
 Reference value :  5.78412e-06
 Reference value :  5.80045e-06
 Reference value :  5.83311e-06
 Reference value :  5.89843e-06
 Reference value :  6.00000e-06
 Reference value :  6.00001e-06
 Reference value :  6.00003e-06
 Reference value :  6.00007e-06
 Reference value :  6.00010e-06
 Reference value :  6.00010e-06
 Reference value :  6.00011e-06
 Reference value :  6.00013e-06
 Reference value :  6.00016e-06
 Reference value :  6.00023e-06
 Reference value :  6.00037e-06
 Reference value :  6.00054e-06
 Reference value :  6.00090e-06
 Reference value :  6.00141e-06
 Reference value :  6.00196e-06
 Reference value :  6.00255e-06
 Reference value :  6.00319e-06
 Reference value :  6.00387e-06
 Reference value :  6.00463e-06
 Reference value :  6.00544e-06
 Reference value :  6.00629e-06
 Reference value :  6.00708e-06
 Reference value :  6.00782e-06
 Reference value :  6.00867e-06
 Reference value :  6.00957e-06
 Reference value :  6.01070e-06
 Reference value :  6.01224e-06
 Reference value :  6.01382e-06
 Reference value :  6.01536e-06
 Reference value :  6.01717e-06
 Reference value :  6.01884e-06
 Reference value :  6.02054e-06
 Reference value :  6.02178e-06
 Reference value :  6.02292e-06
 Reference value :  6.02417e-06
 Reference value :  6.02558e-06
 Reference value :  6.02686e-06
 Reference value :  6.02845e-06
 Reference value :  6.03076e-06
 Reference value :  6.03303e-06
 Reference value :  6.03664e-06
 Reference value :  6.03985e-06
 Reference value :  6.04229e-06
 Reference value :  6.04463e-06
 Reference value :  6.04735e-06
 Reference value :  6.05019e-06
 Reference value :  6.05305e-06
 Reference value :  6.05854e-06
 Reference value :  6.06434e-06
 Reference value :  6.07390e-06
 Reference value :  6.08984e-06
 Reference value :  6.11206e-06
 Reference value :  6.15088e-06
 Reference value :  6.20926e-06
 Reference value :  6.25010e-06
 Reference value :  6.25011e-06
 Reference value :  6.25013e-06
 Reference value :  6.25017e-06
 Reference value :  6.25020e-06
 Reference value :  6.25020e-06
 Reference value :  6.25020e-06
 Reference value :  6.25021e-06
 Reference value :  6.25021e-06
 Reference value :  6.25022e-06
 Reference value :  6.25025e-06
 Reference value :  6.25029e-06
 Reference value :  6.25039e-06
 Reference value :  6.25058e-06
 Reference value :  6.25092e-06
 Reference value :  6.25145e-06
 Reference value :  6.25208e-06
 Reference value :  6.25275e-06
 Reference value :  6.25348e-06
 Reference value :  6.25450e-06
 Reference value :  6.25525e-06
 Reference value :  6.25611e-06
 Reference value :  6.25698e-06
 Reference value :  6.25790e-06
 Reference value :  6.25922e-06
 Reference value :  6.26095e-06
 Reference value :  6.26319e-06
 Reference value :  6.26628e-06
 Reference value :  6.27059e-06
 Reference value :  6.27921e-06
 Reference value :  6.29573e-06
 Reference value :  6.32445e-06
 Reference value :  6.38189e-06
 Reference value :  6.49677e-06
 Reference value :  6.50000e-06
 Reference value :  6.50001e-06
 Reference value :  6.50003e-06
 Reference value :  6.50007e-06
 Reference value :  6.50010e-06
 Reference value :  6.50010e-06
 Reference value :  6.50011e-06
 Reference value :  6.50013e-06
 Reference value :  6.50016e-06
 Reference value :  6.50023e-06
 Reference value :  6.50037e-06
 Reference value :  6.50054e-06
 Reference value :  6.50090e-06
 Reference value :  6.50141e-06
 Reference value :  6.50196e-06
 Reference value :  6.50255e-06
 Reference value :  6.50319e-06
 Reference value :  6.50387e-06
 Reference value :  6.50464e-06
 Reference value :  6.50546e-06
 Reference value :  6.50632e-06
 Reference value :  6.50752e-06
 Reference value :  6.50872e-06
 Reference value :  6.51002e-06
 Reference value :  6.51147e-06
 Reference value :  6.51293e-06
 Reference value :  6.51434e-06
 Reference value :  6.51582e-06
 Reference value :  6.51744e-06
 Reference value :  6.51928e-06
 Reference value :  6.52263e-06
 Reference value :  6.52755e-06
 Reference value :  6.53720e-06
 Reference value :  6.55537e-06
 Reference value :  6.58980e-06
 Reference value :  6.65864e-06
 Reference value :  6.75010e-06
 Reference value :  6.75011e-06
 Reference value :  6.75013e-06
 Reference value :  6.75017e-06
 Reference value :  6.75020e-06
 Reference value :  6.75020e-06
 Reference value :  6.75020e-06
 Reference value :  6.75021e-06
 Reference value :  6.75021e-06
 Reference value :  6.75022e-06
 Reference value :  6.75025e-06
 Reference value :  6.75029e-06
 Reference value :  6.75039e-06
 Reference value :  6.75058e-06
 Reference value :  6.75091e-06
 Reference value :  6.75145e-06
 Reference value :  6.75208e-06
 Reference value :  6.75275e-06
 Reference value :  6.75348e-06
 Reference value :  6.75450e-06
 Reference value :  6.75523e-06
 Reference value :  6.75609e-06
 Reference value :  6.75683e-06
 Reference value :  6.75765e-06
 Reference value :  6.75866e-06
 Reference value :  6.75978e-06
 Reference value :  6.76201e-06
 Reference value :  6.76437e-06
 Reference value :  6.76834e-06
 Reference value :  6.77328e-06
 Reference value :  6.78315e-06
 Reference value :  6.80289e-06
 Reference value :  6.84102e-06
 Reference value :  6.91727e-06
 Reference value :  7.00000e-06
 Reference value :  7.00001e-06
 Reference value :  7.00003e-06
 Reference value :  7.00007e-06
 Reference value :  7.00010e-06
 Reference value :  7.00010e-06
 Reference value :  7.00011e-06
 Reference value :  7.00013e-06
 Reference value :  7.00016e-06
 Reference value :  7.00023e-06
 Reference value :  7.00037e-06
 Reference value :  7.00054e-06
 Reference value :  7.00090e-06
 Reference value :  7.00141e-06
 Reference value :  7.00196e-06
 Reference value :  7.00255e-06
 Reference value :  7.00320e-06
 Reference value :  7.00387e-06
 Reference value :  7.00463e-06
 Reference value :  7.00545e-06
 Reference value :  7.00635e-06
 Reference value :  7.00728e-06
 Reference value :  7.00805e-06
 Reference value :  7.00893e-06
 Reference value :  7.00992e-06
 Reference value :  7.01107e-06
 Reference value :  7.01294e-06
 Reference value :  7.01544e-06
 Reference value :  7.01821e-06
 Reference value :  7.02044e-06
 Reference value :  7.02228e-06
 Reference value :  7.02402e-06
 Reference value :  7.02570e-06
 Reference value :  7.02746e-06
 Reference value :  7.02945e-06
 Reference value :  7.03162e-06
 Reference value :  7.03421e-06
 Reference value :  7.03806e-06
 Reference value :  7.04348e-06
 Reference value :  7.05211e-06
 Reference value :  7.06303e-06
 Reference value :  7.08131e-06
 Reference value :  7.10357e-06
 Reference value :  7.12532e-06
 Reference value :  7.14798e-06
 Reference value :  7.17039e-06
 Reference value :  7.19249e-06
 Reference value :  7.21640e-06
 Reference value :  7.25010e-06
 Reference value :  7.25011e-06
 Reference value :  7.25013e-06
 Reference value :  7.25017e-06
 Reference value :  7.25020e-06
 Reference value :  7.25020e-06
 Reference value :  7.25020e-06
 Reference value :  7.25021e-06
 Reference value :  7.25021e-06
 Reference value :  7.25022e-06
 Reference value :  7.25025e-06
 Reference value :  7.25029e-06
 Reference value :  7.25039e-06
 Reference value :  7.25058e-06
 Reference value :  7.25092e-06
 Reference value :  7.25145e-06
 Reference value :  7.25209e-06
 Reference value :  7.25275e-06
 Reference value :  7.25348e-06
 Reference value :  7.25450e-06
 Reference value :  7.25520e-06
 Reference value :  7.25601e-06
 Reference value :  7.25692e-06
 Reference value :  7.25784e-06
 Reference value :  7.25908e-06
 Reference value :  7.26109e-06
 Reference value :  7.26320e-06
 Reference value :  7.26640e-06
 Reference value :  7.27058e-06
 Reference value :  7.27895e-06
 Reference value :  7.29568e-06
 Reference value :  7.32406e-06
 Reference value :  7.37833e-06
 Reference value :  7.42877e-06
 Reference value :  7.48672e-06
 Reference value :  7.50000e-06
 Reference value :  7.50001e-06
 Reference value :  7.50003e-06
 Reference value :  7.50007e-06
 Reference value :  7.50010e-06
 Reference value :  7.50010e-06
 Reference value :  7.50011e-06
 Reference value :  7.50013e-06
 Reference value :  7.50016e-06
 Reference value :  7.50023e-06
 Reference value :  7.50037e-06
 Reference value :  7.50055e-06
 Reference value :  7.50091e-06
 Reference value :  7.50142e-06
 Reference value :  7.50196e-06
 Reference value :  7.50250e-06
 Reference value :  7.50319e-06
 Reference value :  7.50384e-06
 Reference value :  7.50462e-06
 Reference value :  7.50544e-06
 Reference value :  7.50635e-06
 Reference value :  7.50757e-06
 Reference value :  7.50880e-06
 Reference value :  7.51017e-06
 Reference value :  7.51172e-06
 Reference value :  7.51315e-06
 Reference value :  7.51453e-06
 Reference value :  7.51601e-06
 Reference value :  7.51758e-06
 Reference value :  7.51936e-06
 Reference value :  7.52277e-06
 Reference value :  7.52769e-06
 Reference value :  7.53753e-06
 Reference value :  7.55674e-06
 Reference value :  7.59313e-06
 Reference value :  7.66591e-06
 Reference value :  7.75010e-06
 Reference value :  7.75011e-06
 Reference value :  7.75013e-06
 Reference value :  7.75017e-06
 Reference value :  7.75020e-06
 Reference value :  7.75020e-06
 Reference value :  7.75020e-06
 Reference value :  7.75021e-06
 Reference value :  7.75021e-06
 Reference value :  7.75022e-06
 Reference value :  7.75025e-06
 Reference value :  7.75029e-06
 Reference value :  7.75039e-06
 Reference value :  7.75058e-06
 Reference value :  7.75092e-06
 Reference value :  7.75145e-06
 Reference value :  7.75209e-06
 Reference value :  7.75275e-06
 Reference value :  7.75348e-06
 Reference value :  7.75450e-06
 Reference value :  7.75522e-06
 Reference value :  7.75606e-06
 Reference value :  7.75680e-06
 Reference value :  7.75762e-06
 Reference value :  7.75862e-06
 Reference value :  7.75974e-06
 Reference value :  7.76088e-06
 Reference value :  7.76256e-06
 Reference value :  7.76439e-06
 Reference value :  7.76692e-06
 Reference value :  7.77012e-06
 Reference value :  7.77473e-06
 Reference value :  7.78397e-06
 Reference value :  7.79960e-06
 Reference value :  7.83086e-06
 Reference value :  7.89337e-06
 Reference value :  8.00000e-06
 Reference value :  8.00001e-06
 Reference value :  8.00003e-06
 Reference value :  8.00007e-06
 Reference value :  8.00010e-06
 Reference value :  8.00010e-06
 Reference value :  8.00011e-06
 Reference value :  8.00013e-06
 Reference value :  8.00016e-06
 Reference value :  8.00023e-06
 Reference value :  8.00037e-06
 Reference value :  8.00055e-06
 Reference value :  8.00090e-06
 Reference value :  8.00141e-06
 Reference value :  8.00195e-06
 Reference value :  8.00253e-06
 Reference value :  8.00325e-06
 Reference value :  8.00390e-06
 Reference value :  8.00467e-06
 Reference value :  8.00549e-06
 Reference value :  8.00635e-06
 Reference value :  8.00723e-06
 Reference value :  8.00802e-06
 Reference value :  8.00889e-06
 Reference value :  8.00984e-06
 Reference value :  8.01099e-06
 Reference value :  8.01277e-06
 Reference value :  8.01452e-06
 Reference value :  8.01614e-06
 Reference value :  8.01780e-06
 Reference value :  8.01953e-06
 Reference value :  8.02131e-06
 Reference value :  8.02343e-06
 Reference value :  8.02578e-06
 Reference value :  8.02901e-06
 Reference value :  8.03261e-06
 Reference value :  8.03659e-06
 Reference value :  8.03958e-06
 Reference value :  8.04247e-06
 Reference value :  8.04577e-06
 Reference value :  8.04931e-06
 Reference value :  8.05386e-06
 Reference value :  8.05928e-06
 Reference value :  8.07011e-06
 Reference value :  8.08599e-06
 Reference value :  8.11500e-06
 Reference value :  8.16450e-06
 Reference value :  8.24832e-06
 Reference value :  8.25010e-06
 Reference value :  8.25011e-06
 Reference value :  8.25013e-06
 Reference value :  8.25017e-06
 Reference value :  8.25020e-06
 Reference value :  8.25020e-06
 Reference value :  8.25020e-06
 Reference value :  8.25021e-06
 Reference value :  8.25021e-06
 Reference value :  8.25022e-06
 Reference value :  8.25025e-06
 Reference value :  8.25029e-06
 Reference value :  8.25039e-06
 Reference value :  8.25058e-06
 Reference value :  8.25096e-06
 Reference value :  8.25147e-06
 Reference value :  8.25214e-06
 Reference value :  8.25278e-06
 Reference value :  8.25353e-06
 Reference value :  8.25455e-06
 Reference value :  8.25555e-06
 Reference value :  8.25694e-06
 Reference value :  8.25849e-06
 Reference value :  8.26000e-06
 Reference value :  8.26247e-06
 Reference value :  8.26513e-06
 Reference value :  8.26942e-06
 Reference value :  8.27592e-06
 Reference value :  8.28892e-06
 Reference value :  8.31492e-06
 Reference value :  8.36692e-06
 Reference value :  8.47091e-06
 Reference value :  8.50000e-06
 Reference value :  8.50001e-06
 Reference value :  8.50003e-06
 Reference value :  8.50007e-06
 Reference value :  8.50010e-06
 Reference value :  8.50010e-06
 Reference value :  8.50011e-06
 Reference value :  8.50013e-06
 Reference value :  8.50016e-06
 Reference value :  8.50023e-06
 Reference value :  8.50037e-06
 Reference value :  8.50063e-06
 Reference value :  8.50106e-06
 Reference value :  8.50180e-06
 Reference value :  8.50254e-06
 Reference value :  8.50315e-06
 Reference value :  8.50389e-06
 Reference value :  8.50465e-06
 Reference value :  8.50549e-06
 Reference value :  8.50653e-06
 Reference value :  8.50762e-06
 Reference value :  8.50925e-06
 Reference value :  8.51106e-06
 Reference value :  8.51264e-06
 Reference value :  8.51427e-06
 Reference value :  8.51632e-06
 Reference value :  8.51890e-06
 Reference value :  8.52162e-06
 Reference value :  8.52704e-06
 Reference value :  8.53282e-06
 Reference value :  8.53694e-06
 Reference value :  8.54038e-06
 Reference value :  8.54360e-06
 Reference value :  8.54674e-06
 Reference value :  8.54919e-06
 Reference value :  8.55156e-06
 Reference value :  8.55419e-06
 Reference value :  8.55633e-06
 Reference value :  8.55855e-06
 Reference value :  8.56164e-06
 Reference value :  8.56483e-06
 Reference value :  8.56850e-06
 Reference value :  8.57256e-06
 Reference value :  8.57811e-06
 Reference value :  8.58349e-06
 Reference value :  8.59425e-06
 Reference value :  8.60992e-06
 Reference value :  8.63111e-06
 Reference value :  8.65259e-06
 Reference value :  8.67215e-06
 Reference value :  8.69927e-06
 Reference value :  8.74183e-06
 Reference value :  8.75010e-06
 Reference value :  8.75011e-06
 Reference value :  8.75013e-06
 Reference value :  8.75017e-06
 Reference value :  8.75020e-06
 Reference value :  8.75020e-06
 Reference value :  8.75020e-06
 Reference value :  8.75021e-06
 Reference value :  8.75021e-06
 Reference value :  8.75022e-06
 Reference value :  8.75025e-06
 Reference value :  8.75029e-06
 Reference value :  8.75039e-06
 Reference value :  8.75058e-06
 Reference value :  8.75096e-06
 Reference value :  8.75147e-06
 Reference value :  8.75214e-06
 Reference value :  8.75279e-06
 Reference value :  8.75352e-06
 Reference value :  8.75444e-06
 Reference value :  8.75520e-06
 Reference value :  8.75607e-06
 Reference value :  8.75692e-06
 Reference value :  8.75782e-06
 Reference value :  8.75918e-06
 Reference value :  8.76075e-06
 Reference value :  8.76307e-06
 Reference value :  8.76600e-06
 Reference value :  8.77038e-06
 Reference value :  8.77884e-06
 Reference value :  8.79486e-06
 Reference value :  8.82302e-06
 Reference value :  8.87934e-06
 Reference value :  8.95139e-06
 Reference value :  9.00000e-06
No. of Data Rows : 1441
ngspice-44 done
