
Note: Compatibility modes selected: hs a


Circuit: ** sch_path: /home/audrey/cace/sar-adc-using-sky130-pdk/runs/run_2025-09-10_17-50-06/parameters/power/run_1/power_consumption.sch

option SCALE: Scale is set to 1e-06 for instance and model parameters
option SCALE: Scale is set to 1e-06 for instance and model parameters
option SCALE: Scale is set to 1e-06 for instance and model parameters
option SCALE: Scale is set to 1e-06 for instance and model parameters
Doing analysis at TEMP = 27.000000 and TNOM = 27.000000

Using KLU as Direct Linear Solver
 Reference value :  0.00000e+00
 Reference value :  1.00000e-12
 Reference value :  2.00000e-12
 Reference value :  4.00000e-12
 Reference value :  8.00000e-12
 Reference value :  1.60000e-11
 Reference value :  3.20000e-11
 Reference value :  6.40000e-11
 Reference value :  1.00000e-10
 Reference value :  1.01503e-10
 Reference value :  1.04508e-10
 Reference value :  1.10520e-10
 Reference value :  1.22542e-10
 Reference value :  1.46587e-10
 Reference value :  1.94677e-10
 Reference value :  2.90857e-10
 Reference value :  4.36272e-10
 Reference value :  7.02958e-10
 Reference value :  1.20527e-09
 Reference value :  1.70411e-09
 Reference value :  2.47422e-09
 Reference value :  3.11231e-09
 Reference value :  3.80815e-09
 Reference value :  4.60863e-09
 Reference value :  5.35878e-09
 Reference value :  6.05244e-09
 Reference value :  6.80006e-09
 Reference value :  7.53563e-09
 Reference value :  8.36117e-09
 Reference value :  9.32642e-09
 Reference value :  1.03541e-08
 Reference value :  1.15333e-08
 Reference value :  1.28052e-08
 Reference value :  1.40765e-08
 Reference value :  1.56345e-08
 Reference value :  1.72579e-08
 Reference value :  1.85791e-08
 Reference value :  1.99887e-08
 Reference value :  2.13296e-08
 Reference value :  2.31340e-08
 Reference value :  2.51445e-08
 Reference value :  2.69769e-08
 Reference value :  2.89274e-08
 Reference value :  3.10344e-08
 Reference value :  3.23369e-08
 Reference value :  3.35177e-08
 Reference value :  3.46418e-08
 Reference value :  3.58333e-08
 Reference value :  3.77746e-08
 Reference value :  4.00598e-08
 Reference value :  4.39004e-08
 Reference value :  4.73998e-08
 Reference value :  5.18364e-08
 Reference value :  5.64919e-08
 Reference value :  6.50558e-08
 Reference value :  7.68512e-08
 Reference value :  9.40798e-08
 Reference value :  1.14312e-07
 Reference value :  1.45509e-07
 Reference value :  1.87814e-07
 Reference value :  2.50100e-07
 Reference value :  2.50110e-07
 Reference value :  2.50130e-07
 Reference value :  2.50170e-07
 Reference value :  2.50200e-07
 Reference value :  2.50201e-07
 Reference value :  2.50202e-07
 Reference value :  2.50204e-07
 Reference value :  2.50208e-07
 Reference value :  2.50216e-07
 Reference value :  2.50233e-07
 Reference value :  2.50267e-07
 Reference value :  2.50335e-07
 Reference value :  2.50413e-07
 Reference value :  2.50569e-07
 Reference value :  2.50724e-07
 Reference value :  2.51036e-07
 Reference value :  2.51376e-07
 Reference value :  2.51812e-07
 Reference value :  2.52418e-07
 Reference value :  2.53168e-07
 Reference value :  2.54011e-07
 Reference value :  2.55084e-07
 Reference value :  2.55838e-07
 Reference value :  2.56701e-07
 Reference value :  2.57693e-07
 Reference value :  2.58758e-07
 Reference value :  2.60130e-07
 Reference value :  2.62260e-07
 Reference value :  2.64351e-07
 Reference value :  2.68104e-07
 Reference value :  2.73207e-07
 Reference value :  2.83413e-07
 Reference value :  3.00295e-07
 Reference value :  3.29648e-07
 Reference value :  3.82977e-07
 Reference value :  4.73669e-07
 Reference value :  5.00000e-07
 Reference value :  5.00010e-07
 Reference value :  5.00030e-07
 Reference value :  5.00070e-07
 Reference value :  5.00100e-07
 Reference value :  5.00104e-07
 Reference value :  5.00112e-07
 Reference value :  5.00129e-07
 Reference value :  5.00162e-07
 Reference value :  5.00229e-07
 Reference value :  5.00362e-07
 Reference value :  5.00537e-07
 Reference value :  5.00888e-07
 Reference value :  5.01501e-07
 Reference value :  5.02193e-07
 Reference value :  5.02817e-07
 Reference value :  5.03503e-07
 Reference value :  5.04212e-07
 Reference value :  5.05147e-07
 Reference value :  5.06118e-07
 Reference value :  5.07108e-07
 Reference value :  5.08386e-07
 Reference value :  5.09816e-07
 Reference value :  5.11754e-07
 Reference value :  5.14075e-07
 Reference value :  5.15924e-07
 Reference value :  5.17912e-07
 Reference value :  5.20009e-07
 Reference value :  5.22501e-07
 Reference value :  5.25515e-07
 Reference value :  5.28283e-07
 Reference value :  5.33819e-07
 Reference value :  5.41811e-07
 Reference value :  5.51985e-07
 Reference value :  5.72332e-07
 Reference value :  6.08274e-07
 Reference value :  6.75715e-07
 Reference value :  7.50100e-07
 Reference value :  7.50110e-07
 Reference value :  7.50130e-07
 Reference value :  7.50170e-07
 Reference value :  7.50200e-07
 Reference value :  7.50201e-07
 Reference value :  7.50202e-07
 Reference value :  7.50205e-07
 Reference value :  7.50211e-07
 Reference value :  7.50224e-07
 Reference value :  7.50248e-07
 Reference value :  7.50297e-07
 Reference value :  7.50395e-07
 Reference value :  7.50590e-07
 Reference value :  7.50977e-07
 Reference value :  7.51389e-07
 Reference value :  7.51911e-07
 Reference value :  7.52518e-07
 Reference value :  7.53316e-07
 Reference value :  7.54225e-07
 Reference value :  7.55414e-07
 Reference value :  7.56519e-07
 Reference value :  7.57522e-07
 Reference value :  7.58610e-07
 Reference value :  7.59814e-07
 Reference value :  7.61109e-07
 Reference value :  7.63554e-07
 Reference value :  7.66720e-07
 Reference value :  7.72281e-07
 Reference value :  7.83404e-07
 Reference value :  8.03437e-07
 Reference value :  8.42141e-07
 Reference value :  9.15454e-07
 Reference value :  1.00000e-06
 Reference value :  1.00001e-06
 Reference value :  1.00003e-06
 Reference value :  1.00007e-06
 Reference value :  1.00010e-06
 Reference value :  1.00010e-06
 Reference value :  1.00011e-06
 Reference value :  1.00013e-06
 Reference value :  1.00016e-06
 Reference value :  1.00023e-06
 Reference value :  1.00036e-06
 Reference value :  1.00054e-06
 Reference value :  1.00089e-06
 Reference value :  1.00151e-06
 Reference value :  1.00220e-06
 Reference value :  1.00282e-06
 Reference value :  1.00346e-06
 Reference value :  1.00415e-06
 Reference value :  1.00499e-06
 Reference value :  1.00587e-06
 Reference value :  1.00672e-06
 Reference value :  1.00777e-06
 Reference value :  1.00888e-06
 Reference value :  1.00997e-06
 Reference value :  1.01100e-06
 Reference value :  1.01243e-06
 Reference value :  1.01413e-06
 Reference value :  1.01684e-06
 Reference value :  1.01885e-06
 Reference value :  1.02101e-06
 Reference value :  1.02262e-06
 Reference value :  1.02414e-06
 Reference value :  1.02558e-06
 Reference value :  1.02713e-06
 Reference value :  1.02883e-06
 Reference value :  1.03109e-06
 Reference value :  1.03343e-06
 Reference value :  1.03799e-06
 Reference value :  1.04432e-06
 Reference value :  1.05527e-06
 Reference value :  1.07338e-06
 Reference value :  1.09876e-06
 Reference value :  1.13787e-06
 Reference value :  1.21610e-06
 Reference value :  1.25010e-06
 Reference value :  1.25011e-06
 Reference value :  1.25013e-06
 Reference value :  1.25017e-06
 Reference value :  1.25020e-06
 Reference value :  1.25020e-06
 Reference value :  1.25020e-06
 Reference value :  1.25021e-06
 Reference value :  1.25021e-06
 Reference value :  1.25022e-06
 Reference value :  1.25025e-06
 Reference value :  1.25029e-06
 Reference value :  1.25039e-06
 Reference value :  1.25058e-06
 Reference value :  1.25092e-06
 Reference value :  1.25135e-06
 Reference value :  1.25187e-06
 Reference value :  1.25248e-06
 Reference value :  1.25324e-06
 Reference value :  1.25412e-06
 Reference value :  1.25531e-06
 Reference value :  1.25621e-06
 Reference value :  1.25716e-06
 Reference value :  1.25824e-06
 Reference value :  1.25979e-06
 Reference value :  1.26124e-06
 Reference value :  1.26376e-06
 Reference value :  1.26673e-06
 Reference value :  1.27221e-06
 Reference value :  1.28319e-06
 Reference value :  1.30282e-06
 Reference value :  1.34207e-06
 Reference value :  1.41669e-06
 Reference value :  1.50000e-06
 Reference value :  1.50001e-06
 Reference value :  1.50003e-06
 Reference value :  1.50007e-06
 Reference value :  1.50010e-06
 Reference value :  1.50010e-06
 Reference value :  1.50011e-06
 Reference value :  1.50013e-06
 Reference value :  1.50016e-06
 Reference value :  1.50023e-06
 Reference value :  1.50036e-06
 Reference value :  1.50053e-06
 Reference value :  1.50087e-06
 Reference value :  1.50145e-06
 Reference value :  1.50221e-06
 Reference value :  1.50288e-06
 Reference value :  1.50356e-06
 Reference value :  1.50426e-06
 Reference value :  1.50525e-06
 Reference value :  1.50620e-06
 Reference value :  1.50718e-06
 Reference value :  1.50863e-06
 Reference value :  1.51001e-06
 Reference value :  1.51130e-06
 Reference value :  1.51269e-06
 Reference value :  1.51421e-06
 Reference value :  1.51589e-06
 Reference value :  1.51744e-06
 Reference value :  1.51949e-06
 Reference value :  1.52170e-06
 Reference value :  1.52557e-06
 Reference value :  1.53142e-06
 Reference value :  1.54167e-06
 Reference value :  1.56068e-06
 Reference value :  1.59418e-06
 Reference value :  1.65804e-06
 Reference value :  1.75010e-06
 Reference value :  1.75011e-06
 Reference value :  1.75013e-06
 Reference value :  1.75017e-06
 Reference value :  1.75020e-06
 Reference value :  1.75020e-06
 Reference value :  1.75020e-06
 Reference value :  1.75021e-06
 Reference value :  1.75021e-06
 Reference value :  1.75022e-06
 Reference value :  1.75025e-06
 Reference value :  1.75029e-06
 Reference value :  1.75039e-06
 Reference value :  1.75058e-06
 Reference value :  1.75092e-06
 Reference value :  1.75135e-06
 Reference value :  1.75187e-06
 Reference value :  1.75248e-06
 Reference value :  1.75324e-06
 Reference value :  1.75411e-06
 Reference value :  1.75529e-06
 Reference value :  1.75619e-06
 Reference value :  1.75714e-06
 Reference value :  1.75818e-06
 Reference value :  1.75931e-06
 Reference value :  1.76052e-06
 Reference value :  1.76295e-06
 Reference value :  1.76558e-06
 Reference value :  1.77020e-06
 Reference value :  1.77854e-06
 Reference value :  1.79523e-06
 Reference value :  1.82860e-06
 Reference value :  1.89352e-06
 Reference value :  2.00000e-06
 Reference value :  2.00001e-06
 Reference value :  2.00003e-06
 Reference value :  2.00007e-06
 Reference value :  2.00010e-06
 Reference value :  2.00010e-06
 Reference value :  2.00011e-06
 Reference value :  2.00013e-06
 Reference value :  2.00016e-06
 Reference value :  2.00023e-06
 Reference value :  2.00036e-06
 Reference value :  2.00053e-06
 Reference value :  2.00087e-06
 Reference value :  2.00145e-06
 Reference value :  2.00221e-06
 Reference value :  2.00288e-06
 Reference value :  2.00356e-06
 Reference value :  2.00427e-06
 Reference value :  2.00525e-06
 Reference value :  2.00603e-06
 Reference value :  2.00686e-06
 Reference value :  2.00785e-06
 Reference value :  2.00893e-06
 Reference value :  2.00992e-06
 Reference value :  2.01096e-06
 Reference value :  2.01237e-06
 Reference value :  2.01398e-06
 Reference value :  2.01628e-06
 Reference value :  2.01849e-06
 Reference value :  2.02053e-06
 Reference value :  2.02215e-06
 Reference value :  2.02369e-06
 Reference value :  2.02529e-06
 Reference value :  2.02696e-06
 Reference value :  2.02890e-06
 Reference value :  2.03080e-06
 Reference value :  2.03344e-06
 Reference value :  2.03789e-06
 Reference value :  2.04542e-06
 Reference value :  2.05971e-06
 Reference value :  2.08135e-06
 Reference value :  2.12259e-06
 Reference value :  2.17439e-06
 Reference value :  2.23684e-06
 Reference value :  2.25010e-06
 Reference value :  2.25011e-06
 Reference value :  2.25013e-06
 Reference value :  2.25017e-06
 Reference value :  2.25020e-06
 Reference value :  2.25020e-06
 Reference value :  2.25020e-06
 Reference value :  2.25021e-06
 Reference value :  2.25021e-06
 Reference value :  2.25022e-06
 Reference value :  2.25025e-06
 Reference value :  2.25029e-06
 Reference value :  2.25039e-06
 Reference value :  2.25058e-06
 Reference value :  2.25092e-06
 Reference value :  2.25135e-06
 Reference value :  2.25187e-06
 Reference value :  2.25248e-06
 Reference value :  2.25324e-06
 Reference value :  2.25411e-06
 Reference value :  2.25527e-06
 Reference value :  2.25616e-06
 Reference value :  2.25710e-06
 Reference value :  2.25818e-06
 Reference value :  2.25974e-06
 Reference value :  2.26121e-06
 Reference value :  2.26374e-06
 Reference value :  2.26664e-06
 Reference value :  2.27199e-06
 Reference value :  2.27615e-06
 Reference value :  2.28066e-06
 Reference value :  2.28603e-06
 Reference value :  2.29189e-06
 Reference value :  2.30200e-06
 Reference value :  2.31502e-06
 Reference value :  2.33630e-06
 Reference value :  2.35907e-06
 Reference value :  2.37414e-06
 Reference value :  2.38786e-06
 Reference value :  2.40184e-06
 Reference value :  2.41670e-06
 Reference value :  2.43866e-06
 Reference value :  2.46276e-06
 Reference value :  2.49751e-06
 Reference value :  2.50000e-06
 Reference value :  2.50001e-06
 Reference value :  2.50003e-06
 Reference value :  2.50007e-06
 Reference value :  2.50010e-06
 Reference value :  2.50010e-06
 Reference value :  2.50011e-06
 Reference value :  2.50013e-06
 Reference value :  2.50016e-06
 Reference value :  2.50023e-06
 Reference value :  2.50036e-06
 Reference value :  2.50053e-06
 Reference value :  2.50087e-06
 Reference value :  2.50144e-06
 Reference value :  2.50221e-06
 Reference value :  2.50289e-06
 Reference value :  2.50356e-06
 Reference value :  2.50427e-06
 Reference value :  2.50525e-06
 Reference value :  2.50621e-06
 Reference value :  2.50720e-06
 Reference value :  2.50866e-06
 Reference value :  2.51005e-06
 Reference value :  2.51134e-06
 Reference value :  2.51270e-06
 Reference value :  2.51421e-06
 Reference value :  2.51589e-06
 Reference value :  2.51748e-06
 Reference value :  2.51976e-06
 Reference value :  2.52211e-06
 Reference value :  2.52648e-06
 Reference value :  2.53307e-06
 Reference value :  2.54457e-06
 Reference value :  2.56632e-06
 Reference value :  2.60419e-06
 Reference value :  2.67704e-06
 Reference value :  2.75010e-06
 Reference value :  2.75011e-06
 Reference value :  2.75013e-06
 Reference value :  2.75017e-06
 Reference value :  2.75020e-06
 Reference value :  2.75020e-06
 Reference value :  2.75020e-06
 Reference value :  2.75021e-06
 Reference value :  2.75021e-06
 Reference value :  2.75022e-06
 Reference value :  2.75025e-06
 Reference value :  2.75029e-06
 Reference value :  2.75039e-06
 Reference value :  2.75058e-06
 Reference value :  2.75092e-06
 Reference value :  2.75134e-06
 Reference value :  2.75187e-06
 Reference value :  2.75248e-06
 Reference value :  2.75323e-06
 Reference value :  2.75411e-06
 Reference value :  2.75529e-06
 Reference value :  2.75619e-06
 Reference value :  2.75714e-06
 Reference value :  2.75818e-06
 Reference value :  2.75930e-06
 Reference value :  2.76051e-06
 Reference value :  2.76294e-06
 Reference value :  2.76556e-06
 Reference value :  2.77017e-06
 Reference value :  2.77847e-06
 Reference value :  2.79507e-06
 Reference value :  2.82827e-06
 Reference value :  2.89274e-06
 Reference value :  3.00000e-06
 Reference value :  3.00001e-06
 Reference value :  3.00003e-06
 Reference value :  3.00007e-06
 Reference value :  3.00010e-06
 Reference value :  3.00010e-06
 Reference value :  3.00011e-06
 Reference value :  3.00013e-06
 Reference value :  3.00016e-06
 Reference value :  3.00023e-06
 Reference value :  3.00036e-06
 Reference value :  3.00053e-06
 Reference value :  3.00087e-06
 Reference value :  3.00145e-06
 Reference value :  3.00221e-06
 Reference value :  3.00288e-06
 Reference value :  3.00356e-06
 Reference value :  3.00426e-06
 Reference value :  3.00525e-06
 Reference value :  3.00603e-06
 Reference value :  3.00685e-06
 Reference value :  3.00785e-06
 Reference value :  3.00892e-06
 Reference value :  3.01001e-06
 Reference value :  3.01102e-06
 Reference value :  3.01246e-06
 Reference value :  3.01411e-06
 Reference value :  3.01671e-06
 Reference value :  3.01868e-06
 Reference value :  3.02078e-06
 Reference value :  3.02227e-06
 Reference value :  3.02361e-06
 Reference value :  3.02498e-06
 Reference value :  3.02651e-06
 Reference value :  3.02826e-06
 Reference value :  3.03003e-06
 Reference value :  3.03276e-06
 Reference value :  3.03666e-06
 Reference value :  3.04190e-06
 Reference value :  3.04784e-06
 Reference value :  3.05435e-06
 Reference value :  3.05835e-06
 Reference value :  3.06279e-06
 Reference value :  3.06728e-06
 Reference value :  3.07245e-06
 Reference value :  3.07894e-06
 Reference value :  3.08524e-06
 Reference value :  3.09199e-06
 Reference value :  3.10400e-06
 Reference value :  3.11634e-06
 Reference value :  3.13578e-06
 Reference value :  3.16174e-06
 Reference value :  3.19751e-06
 Reference value :  3.23754e-06
 Reference value :  3.25010e-06
 Reference value :  3.25011e-06
 Reference value :  3.25013e-06
 Reference value :  3.25017e-06
 Reference value :  3.25020e-06
 Reference value :  3.25020e-06
 Reference value :  3.25020e-06
 Reference value :  3.25021e-06
 Reference value :  3.25021e-06
 Reference value :  3.25022e-06
 Reference value :  3.25025e-06
 Reference value :  3.25029e-06
 Reference value :  3.25039e-06
 Reference value :  3.25058e-06
 Reference value :  3.25092e-06
 Reference value :  3.25135e-06
 Reference value :  3.25187e-06
 Reference value :  3.25248e-06
 Reference value :  3.25323e-06
 Reference value :  3.25411e-06
 Reference value :  3.25523e-06
 Reference value :  3.25616e-06
 Reference value :  3.25711e-06
 Reference value :  3.25818e-06
 Reference value :  3.25976e-06
 Reference value :  3.26129e-06
 Reference value :  3.26377e-06
 Reference value :  3.26674e-06
 Reference value :  3.27207e-06
 Reference value :  3.28272e-06
 Reference value :  3.30168e-06
 Reference value :  3.33925e-06
 Reference value :  3.41005e-06
 Reference value :  3.50000e-06
 Reference value :  3.50001e-06
 Reference value :  3.50003e-06
 Reference value :  3.50007e-06
 Reference value :  3.50010e-06
 Reference value :  3.50010e-06
 Reference value :  3.50011e-06
 Reference value :  3.50013e-06
 Reference value :  3.50016e-06
 Reference value :  3.50023e-06
 Reference value :  3.50036e-06
 Reference value :  3.50053e-06
 Reference value :  3.50087e-06
 Reference value :  3.50145e-06
 Reference value :  3.50221e-06
 Reference value :  3.50283e-06
 Reference value :  3.50357e-06
 Reference value :  3.50423e-06
 Reference value :  3.50524e-06
 Reference value :  3.50619e-06
 Reference value :  3.50717e-06
 Reference value :  3.50854e-06
 Reference value :  3.50996e-06
 Reference value :  3.51127e-06
 Reference value :  3.51277e-06
 Reference value :  3.51433e-06
 Reference value :  3.51601e-06
 Reference value :  3.51787e-06
 Reference value :  3.51979e-06
 Reference value :  3.52364e-06
 Reference value :  3.53032e-06
 Reference value :  3.54099e-06
 Reference value :  3.56192e-06
 Reference value :  3.59665e-06
 Reference value :  3.66612e-06
 Reference value :  3.75010e-06
 Reference value :  3.75011e-06
 Reference value :  3.75013e-06
 Reference value :  3.75017e-06
 Reference value :  3.75020e-06
 Reference value :  3.75020e-06
 Reference value :  3.75020e-06
 Reference value :  3.75021e-06
 Reference value :  3.75021e-06
 Reference value :  3.75022e-06
 Reference value :  3.75025e-06
 Reference value :  3.75030e-06
 Reference value :  3.75039e-06
 Reference value :  3.75059e-06
 Reference value :  3.75094e-06
 Reference value :  3.75136e-06
 Reference value :  3.75188e-06
 Reference value :  3.75249e-06
 Reference value :  3.75325e-06
 Reference value :  3.75413e-06
 Reference value :  3.75531e-06
 Reference value :  3.75623e-06
 Reference value :  3.75720e-06
 Reference value :  3.75823e-06
 Reference value :  3.75934e-06
 Reference value :  3.76056e-06
 Reference value :  3.76184e-06
 Reference value :  3.76324e-06
 Reference value :  3.76537e-06
 Reference value :  3.76769e-06
 Reference value :  3.77129e-06
 Reference value :  3.77697e-06
 Reference value :  3.78834e-06
 Reference value :  3.81106e-06
 Reference value :  3.85652e-06
 Reference value :  3.94743e-06
 Reference value :  4.00000e-06
 Reference value :  4.00001e-06
 Reference value :  4.00003e-06
 Reference value :  4.00007e-06
 Reference value :  4.00010e-06
 Reference value :  4.00010e-06
 Reference value :  4.00011e-06
 Reference value :  4.00013e-06
 Reference value :  4.00016e-06
 Reference value :  4.00023e-06
 Reference value :  4.00036e-06
 Reference value :  4.00053e-06
 Reference value :  4.00087e-06
 Reference value :  4.00144e-06
 Reference value :  4.00221e-06
 Reference value :  4.00288e-06
 Reference value :  4.00356e-06
 Reference value :  4.00427e-06
 Reference value :  4.00513e-06
 Reference value :  4.00590e-06
 Reference value :  4.00673e-06
 Reference value :  4.00780e-06
 Reference value :  4.00879e-06
 Reference value :  4.00975e-06
 Reference value :  4.01077e-06
 Reference value :  4.01208e-06
 Reference value :  4.01371e-06
 Reference value :  4.01491e-06
 Reference value :  4.01628e-06
 Reference value :  4.01767e-06
 Reference value :  4.01926e-06
 Reference value :  4.02095e-06
 Reference value :  4.02256e-06
 Reference value :  4.02411e-06
 Reference value :  4.02561e-06
 Reference value :  4.02718e-06
 Reference value :  4.02893e-06
 Reference value :  4.03117e-06
 Reference value :  4.03356e-06
 Reference value :  4.03808e-06
 Reference value :  4.04433e-06
 Reference value :  4.05078e-06
 Reference value :  4.05682e-06
 Reference value :  4.06215e-06
 Reference value :  4.06510e-06
 Reference value :  4.06787e-06
 Reference value :  4.07083e-06
 Reference value :  4.07541e-06
 Reference value :  4.08098e-06
 Reference value :  4.08903e-06
 Reference value :  4.10070e-06
 Reference value :  4.11763e-06
 Reference value :  4.14041e-06
 Reference value :  4.16454e-06
 Reference value :  4.19336e-06
 Reference value :  4.22335e-06
 Reference value :  4.24044e-06
 Reference value :  4.25010e-06
 Reference value :  4.25011e-06
 Reference value :  4.25013e-06
 Reference value :  4.25017e-06
 Reference value :  4.25020e-06
 Reference value :  4.25020e-06
 Reference value :  4.25020e-06
 Reference value :  4.25021e-06
 Reference value :  4.25021e-06
 Reference value :  4.25022e-06
 Reference value :  4.25025e-06
 Reference value :  4.25030e-06
 Reference value :  4.25039e-06
 Reference value :  4.25059e-06
 Reference value :  4.25094e-06
 Reference value :  4.25136e-06
 Reference value :  4.25188e-06
 Reference value :  4.25249e-06
 Reference value :  4.25325e-06
 Reference value :  4.25413e-06
 Reference value :  4.25526e-06
 Reference value :  4.25628e-06
 Reference value :  4.25727e-06
 Reference value :  4.25840e-06
 Reference value :  4.25996e-06
 Reference value :  4.26173e-06
 Reference value :  4.26408e-06
 Reference value :  4.26747e-06
 Reference value :  4.27311e-06
 Reference value :  4.28437e-06
 Reference value :  4.30400e-06
 Reference value :  4.34163e-06
 Reference value :  4.39064e-06
 Reference value :  4.45498e-06
 Reference value :  4.50000e-06
 Reference value :  4.50001e-06
 Reference value :  4.50003e-06
 Reference value :  4.50007e-06
 Reference value :  4.50010e-06
 Reference value :  4.50010e-06
 Reference value :  4.50011e-06
 Reference value :  4.50013e-06
 Reference value :  4.50016e-06
 Reference value :  4.50023e-06
 Reference value :  4.50036e-06
 Reference value :  4.50053e-06
 Reference value :  4.50087e-06
 Reference value :  4.50144e-06
 Reference value :  4.50221e-06
 Reference value :  4.50283e-06
 Reference value :  4.50357e-06
 Reference value :  4.50424e-06
 Reference value :  4.50525e-06
 Reference value :  4.50621e-06
 Reference value :  4.50717e-06
 Reference value :  4.50854e-06
 Reference value :  4.50996e-06
 Reference value :  4.51123e-06
 Reference value :  4.51260e-06
 Reference value :  4.51389e-06
 Reference value :  4.51540e-06
 Reference value :  4.51698e-06
 Reference value :  4.51870e-06
 Reference value :  4.52216e-06
 Reference value :  4.52907e-06
 Reference value :  4.54167e-06
 Reference value :  4.56687e-06
 Reference value :  4.61607e-06
 Reference value :  4.71447e-06
 Reference value :  4.75010e-06
 Reference value :  4.75011e-06
 Reference value :  4.75013e-06
 Reference value :  4.75017e-06
 Reference value :  4.75020e-06
 Reference value :  4.75020e-06
 Reference value :  4.75020e-06
 Reference value :  4.75021e-06
 Reference value :  4.75021e-06
 Reference value :  4.75022e-06
 Reference value :  4.75025e-06
 Reference value :  4.75030e-06
 Reference value :  4.75039e-06
 Reference value :  4.75059e-06
 Reference value :  4.75093e-06
 Reference value :  4.75136e-06
 Reference value :  4.75188e-06
 Reference value :  4.75249e-06
 Reference value :  4.75325e-06
 Reference value :  4.75413e-06
 Reference value :  4.75530e-06
 Reference value :  4.75623e-06
 Reference value :  4.75719e-06
 Reference value :  4.75822e-06
 Reference value :  4.75933e-06
 Reference value :  4.76056e-06
 Reference value :  4.76184e-06
 Reference value :  4.76324e-06
 Reference value :  4.76537e-06
 Reference value :  4.76769e-06
 Reference value :  4.77132e-06
 Reference value :  4.77703e-06
 Reference value :  4.78847e-06
 Reference value :  4.81134e-06
 Reference value :  4.85685e-06
 Reference value :  4.94787e-06
 Reference value :  5.00000e-06
 Reference value :  5.00001e-06
 Reference value :  5.00003e-06
 Reference value :  5.00007e-06
 Reference value :  5.00010e-06
 Reference value :  5.00010e-06
 Reference value :  5.00011e-06
 Reference value :  5.00013e-06
 Reference value :  5.00016e-06
 Reference value :  5.00023e-06
 Reference value :  5.00036e-06
 Reference value :  5.00053e-06
 Reference value :  5.00087e-06
 Reference value :  5.00144e-06
 Reference value :  5.00221e-06
 Reference value :  5.00288e-06
 Reference value :  5.00356e-06
 Reference value :  5.00427e-06
 Reference value :  5.00523e-06
 Reference value :  5.00601e-06
 Reference value :  5.00683e-06
 Reference value :  5.00780e-06
 Reference value :  5.00871e-06
 Reference value :  5.00969e-06
 Reference value :  5.01066e-06
 Reference value :  5.01192e-06
 Reference value :  5.01360e-06
 Reference value :  5.01479e-06
 Reference value :  5.01619e-06
 Reference value :  5.01765e-06
 Reference value :  5.01927e-06
 Reference value :  5.02109e-06
 Reference value :  5.02261e-06
 Reference value :  5.02417e-06
 Reference value :  5.02563e-06
 Reference value :  5.02718e-06
 Reference value :  5.02892e-06
 Reference value :  5.03115e-06
 Reference value :  5.03351e-06
 Reference value :  5.03630e-06
 Reference value :  5.03853e-06
 Reference value :  5.04055e-06
 Reference value :  5.04252e-06
 Reference value :  5.04443e-06
 Reference value :  5.04648e-06
 Reference value :  5.05026e-06
 Reference value :  5.05500e-06
 Reference value :  5.06447e-06
 Reference value :  5.07880e-06
 Reference value :  5.09379e-06
 Reference value :  5.10817e-06
 Reference value :  5.12747e-06
 Reference value :  5.16260e-06
 Reference value :  5.23287e-06
 Reference value :  5.25010e-06
 Reference value :  5.25011e-06
 Reference value :  5.25013e-06
 Reference value :  5.25017e-06
 Reference value :  5.25020e-06
 Reference value :  5.25020e-06
 Reference value :  5.25020e-06
 Reference value :  5.25021e-06
 Reference value :  5.25021e-06
 Reference value :  5.25022e-06
 Reference value :  5.25025e-06
 Reference value :  5.25029e-06
 Reference value :  5.25039e-06
 Reference value :  5.25058e-06
 Reference value :  5.25092e-06
 Reference value :  5.25135e-06
 Reference value :  5.25187e-06
 Reference value :  5.25248e-06
 Reference value :  5.25324e-06
 Reference value :  5.25411e-06
 Reference value :  5.25531e-06
 Reference value :  5.25620e-06
 Reference value :  5.25714e-06
 Reference value :  5.25820e-06
 Reference value :  5.25961e-06
 Reference value :  5.26106e-06
 Reference value :  5.26351e-06
 Reference value :  5.26641e-06
 Reference value :  5.27148e-06
 Reference value :  5.28164e-06
 Reference value :  5.30034e-06
 Reference value :  5.33680e-06
 Reference value :  5.40727e-06
 Reference value :  5.50000e-06
 Reference value :  5.50001e-06
 Reference value :  5.50003e-06
 Reference value :  5.50007e-06
 Reference value :  5.50010e-06
 Reference value :  5.50010e-06
 Reference value :  5.50011e-06
 Reference value :  5.50013e-06
 Reference value :  5.50016e-06
 Reference value :  5.50023e-06
 Reference value :  5.50036e-06
 Reference value :  5.50053e-06
 Reference value :  5.50087e-06
 Reference value :  5.50145e-06
 Reference value :  5.50221e-06
 Reference value :  5.50288e-06
 Reference value :  5.50356e-06
 Reference value :  5.50426e-06
 Reference value :  5.50524e-06
 Reference value :  5.50619e-06
 Reference value :  5.50715e-06
 Reference value :  5.50859e-06
 Reference value :  5.50997e-06
 Reference value :  5.51122e-06
 Reference value :  5.51249e-06
 Reference value :  5.51373e-06
 Reference value :  5.51520e-06
 Reference value :  5.51674e-06
 Reference value :  5.51842e-06
 Reference value :  5.52178e-06
 Reference value :  5.52850e-06
 Reference value :  5.53996e-06
 Reference value :  5.56287e-06
 Reference value :  5.60609e-06
 Reference value :  5.68717e-06
 Reference value :  5.75010e-06
 Reference value :  5.75011e-06
 Reference value :  5.75013e-06
 Reference value :  5.75017e-06
 Reference value :  5.75020e-06
 Reference value :  5.75020e-06
 Reference value :  5.75020e-06
 Reference value :  5.75021e-06
 Reference value :  5.75021e-06
 Reference value :  5.75022e-06
 Reference value :  5.75025e-06
 Reference value :  5.75030e-06
 Reference value :  5.75039e-06
 Reference value :  5.75059e-06
 Reference value :  5.75094e-06
 Reference value :  5.75136e-06
 Reference value :  5.75188e-06
 Reference value :  5.75249e-06
 Reference value :  5.75326e-06
 Reference value :  5.75413e-06
 Reference value :  5.75531e-06
 Reference value :  5.75623e-06
 Reference value :  5.75719e-06
 Reference value :  5.75822e-06
 Reference value :  5.75933e-06
 Reference value :  5.76057e-06
 Reference value :  5.76300e-06
 Reference value :  5.76567e-06
 Reference value :  5.77033e-06
 Reference value :  5.77886e-06
 Reference value :  5.79593e-06
 Reference value :  5.82928e-06
 Reference value :  5.89494e-06
 Reference value :  6.00000e-06
 Reference value :  6.00001e-06
 Reference value :  6.00003e-06
 Reference value :  6.00007e-06
 Reference value :  6.00010e-06
 Reference value :  6.00010e-06
 Reference value :  6.00011e-06
 Reference value :  6.00013e-06
 Reference value :  6.00016e-06
 Reference value :  6.00023e-06
 Reference value :  6.00036e-06
 Reference value :  6.00053e-06
 Reference value :  6.00087e-06
 Reference value :  6.00145e-06
 Reference value :  6.00221e-06
 Reference value :  6.00288e-06
 Reference value :  6.00356e-06
 Reference value :  6.00427e-06
 Reference value :  6.00525e-06
 Reference value :  6.00603e-06
 Reference value :  6.00686e-06
 Reference value :  6.00785e-06
 Reference value :  6.00867e-06
 Reference value :  6.00958e-06
 Reference value :  6.01058e-06
 Reference value :  6.01175e-06
 Reference value :  6.01355e-06
 Reference value :  6.01581e-06
 Reference value :  6.01814e-06
 Reference value :  6.02063e-06
 Reference value :  6.02240e-06
 Reference value :  6.02408e-06
 Reference value :  6.02574e-06
 Reference value :  6.02754e-06
 Reference value :  6.02945e-06
 Reference value :  6.03182e-06
 Reference value :  6.03429e-06
 Reference value :  6.03917e-06
 Reference value :  6.04536e-06
 Reference value :  6.05201e-06
 Reference value :  6.05676e-06
 Reference value :  6.06157e-06
 Reference value :  6.06694e-06
 Reference value :  6.07281e-06
 Reference value :  6.08012e-06
 Reference value :  6.08778e-06
 Reference value :  6.09482e-06
 Reference value :  6.10889e-06
 Reference value :  6.12441e-06
 Reference value :  6.14866e-06
 Reference value :  6.18551e-06
 Reference value :  6.24130e-06
 Reference value :  6.25010e-06
 Reference value :  6.25011e-06
 Reference value :  6.25013e-06
 Reference value :  6.25017e-06
 Reference value :  6.25020e-06
 Reference value :  6.25020e-06
 Reference value :  6.25020e-06
 Reference value :  6.25021e-06
 Reference value :  6.25021e-06
 Reference value :  6.25022e-06
 Reference value :  6.25025e-06
 Reference value :  6.25029e-06
 Reference value :  6.25039e-06
 Reference value :  6.25058e-06
 Reference value :  6.25092e-06
 Reference value :  6.25135e-06
 Reference value :  6.25187e-06
 Reference value :  6.25248e-06
 Reference value :  6.25324e-06
 Reference value :  6.25411e-06
 Reference value :  6.25524e-06
 Reference value :  6.25616e-06
 Reference value :  6.25712e-06
 Reference value :  6.25819e-06
 Reference value :  6.25977e-06
 Reference value :  6.26130e-06
 Reference value :  6.26377e-06
 Reference value :  6.26675e-06
 Reference value :  6.27210e-06
 Reference value :  6.28281e-06
 Reference value :  6.30160e-06
 Reference value :  6.33908e-06
 Reference value :  6.40990e-06
 Reference value :  6.50000e-06
 Reference value :  6.50001e-06
 Reference value :  6.50003e-06
 Reference value :  6.50007e-06
 Reference value :  6.50010e-06
 Reference value :  6.50010e-06
 Reference value :  6.50011e-06
 Reference value :  6.50013e-06
 Reference value :  6.50016e-06
 Reference value :  6.50023e-06
 Reference value :  6.50036e-06
 Reference value :  6.50053e-06
 Reference value :  6.50087e-06
 Reference value :  6.50145e-06
 Reference value :  6.50221e-06
 Reference value :  6.50284e-06
 Reference value :  6.50350e-06
 Reference value :  6.50419e-06
 Reference value :  6.50515e-06
 Reference value :  6.50611e-06
 Reference value :  6.50706e-06
 Reference value :  6.50854e-06
 Reference value :  6.50990e-06
 Reference value :  6.51126e-06
 Reference value :  6.51280e-06
 Reference value :  6.51419e-06
 Reference value :  6.51570e-06
 Reference value :  6.51721e-06
 Reference value :  6.51899e-06
 Reference value :  6.52254e-06
 Reference value :  6.52846e-06
 Reference value :  6.54032e-06
 Reference value :  6.56234e-06
 Reference value :  6.60347e-06
 Reference value :  6.68572e-06
 Reference value :  6.75010e-06
 Reference value :  6.75011e-06
 Reference value :  6.75013e-06
 Reference value :  6.75017e-06
 Reference value :  6.75020e-06
 Reference value :  6.75020e-06
 Reference value :  6.75020e-06
 Reference value :  6.75021e-06
 Reference value :  6.75021e-06
 Reference value :  6.75022e-06
 Reference value :  6.75025e-06
 Reference value :  6.75030e-06
 Reference value :  6.75039e-06
 Reference value :  6.75059e-06
 Reference value :  6.75094e-06
 Reference value :  6.75136e-06
 Reference value :  6.75188e-06
 Reference value :  6.75249e-06
 Reference value :  6.75326e-06
 Reference value :  6.75413e-06
 Reference value :  6.75531e-06
 Reference value :  6.75623e-06
 Reference value :  6.75720e-06
 Reference value :  6.75823e-06
 Reference value :  6.75934e-06
 Reference value :  6.76057e-06
 Reference value :  6.76184e-06
 Reference value :  6.76324e-06
 Reference value :  6.76536e-06
 Reference value :  6.76769e-06
 Reference value :  6.77130e-06
 Reference value :  6.77699e-06
 Reference value :  6.78838e-06
 Reference value :  6.81116e-06
 Reference value :  6.85576e-06
 Reference value :  6.94497e-06
 Reference value :  7.00000e-06
 Reference value :  7.00001e-06
 Reference value :  7.00003e-06
 Reference value :  7.00007e-06
 Reference value :  7.00010e-06
 Reference value :  7.00010e-06
 Reference value :  7.00011e-06
 Reference value :  7.00013e-06
 Reference value :  7.00016e-06
 Reference value :  7.00023e-06
 Reference value :  7.00036e-06
 Reference value :  7.00053e-06
 Reference value :  7.00087e-06
 Reference value :  7.00144e-06
 Reference value :  7.00221e-06
 Reference value :  7.00288e-06
 Reference value :  7.00356e-06
 Reference value :  7.00427e-06
 Reference value :  7.00513e-06
 Reference value :  7.00590e-06
 Reference value :  7.00672e-06
 Reference value :  7.00780e-06
 Reference value :  7.00878e-06
 Reference value :  7.00974e-06
 Reference value :  7.01079e-06
 Reference value :  7.01204e-06
 Reference value :  7.01385e-06
 Reference value :  7.01520e-06
 Reference value :  7.01666e-06
 Reference value :  7.01810e-06
 Reference value :  7.01976e-06
 Reference value :  7.02134e-06
 Reference value :  7.02245e-06
 Reference value :  7.02360e-06
 Reference value :  7.02475e-06
 Reference value :  7.02607e-06
 Reference value :  7.02745e-06
 Reference value :  7.02887e-06
 Reference value :  7.03092e-06
 Reference value :  7.03229e-06
 Reference value :  7.03389e-06
 Reference value :  7.03574e-06
 Reference value :  7.03770e-06
 Reference value :  7.04161e-06
 Reference value :  7.04566e-06
 Reference value :  7.05036e-06
 Reference value :  7.05742e-06
 Reference value :  7.06895e-06
 Reference value :  7.08956e-06
 Reference value :  7.12628e-06
 Reference value :  7.18964e-06
 Reference value :  7.25010e-06
 Reference value :  7.25011e-06
 Reference value :  7.25013e-06
 Reference value :  7.25017e-06
 Reference value :  7.25020e-06
 Reference value :  7.25020e-06
 Reference value :  7.25020e-06
 Reference value :  7.25021e-06
 Reference value :  7.25021e-06
 Reference value :  7.25022e-06
 Reference value :  7.25025e-06
 Reference value :  7.25030e-06
 Reference value :  7.25039e-06
 Reference value :  7.25059e-06
 Reference value :  7.25094e-06
 Reference value :  7.25136e-06
 Reference value :  7.25188e-06
 Reference value :  7.25249e-06
 Reference value :  7.25326e-06
 Reference value :  7.25414e-06
 Reference value :  7.25532e-06
 Reference value :  7.25624e-06
 Reference value :  7.25722e-06
 Reference value :  7.25830e-06
 Reference value :  7.25986e-06
 Reference value :  7.26139e-06
 Reference value :  7.26384e-06
 Reference value :  7.26695e-06
 Reference value :  7.27254e-06
 Reference value :  7.28371e-06
 Reference value :  7.30281e-06
 Reference value :  7.34089e-06
 Reference value :  7.41073e-06
 Reference value :  7.50000e-06
 Reference value :  7.50001e-06
 Reference value :  7.50003e-06
 Reference value :  7.50007e-06
 Reference value :  7.50010e-06
 Reference value :  7.50010e-06
 Reference value :  7.50011e-06
 Reference value :  7.50013e-06
 Reference value :  7.50016e-06
 Reference value :  7.50023e-06
 Reference value :  7.50036e-06
 Reference value :  7.50053e-06
 Reference value :  7.50087e-06
 Reference value :  7.50150e-06
 Reference value :  7.50218e-06
 Reference value :  7.50280e-06
 Reference value :  7.50345e-06
 Reference value :  7.50413e-06
 Reference value :  7.50512e-06
 Reference value :  7.50601e-06
 Reference value :  7.50701e-06
 Reference value :  7.50826e-06
 Reference value :  7.50973e-06
 Reference value :  7.51115e-06
 Reference value :  7.51283e-06
 Reference value :  7.51438e-06
 Reference value :  7.51607e-06
 Reference value :  7.51780e-06
 Reference value :  7.51969e-06
 Reference value :  7.52348e-06
 Reference value :  7.52973e-06
 Reference value :  7.54042e-06
 Reference value :  7.56141e-06
 Reference value :  7.59987e-06
 Reference value :  7.67158e-06
 Reference value :  7.75010e-06
 Reference value :  7.75011e-06
 Reference value :  7.75013e-06
 Reference value :  7.75017e-06
 Reference value :  7.75020e-06
 Reference value :  7.75020e-06
 Reference value :  7.75020e-06
 Reference value :  7.75021e-06
 Reference value :  7.75021e-06
 Reference value :  7.75022e-06
 Reference value :  7.75025e-06
 Reference value :  7.75030e-06
 Reference value :  7.75039e-06
 Reference value :  7.75059e-06
 Reference value :  7.75094e-06
 Reference value :  7.75136e-06
 Reference value :  7.75188e-06
 Reference value :  7.75249e-06
 Reference value :  7.75326e-06
 Reference value :  7.75414e-06
 Reference value :  7.75531e-06
 Reference value :  7.75626e-06
 Reference value :  7.75725e-06
 Reference value :  7.75827e-06
 Reference value :  7.75940e-06
 Reference value :  7.76065e-06
 Reference value :  7.76305e-06
 Reference value :  7.76585e-06
 Reference value :  7.77063e-06
 Reference value :  7.77977e-06
 Reference value :  7.79800e-06
 Reference value :  7.83137e-06
 Reference value :  7.89802e-06
 Reference value :  8.00000e-06
 Reference value :  8.00001e-06
 Reference value :  8.00003e-06
 Reference value :  8.00007e-06
 Reference value :  8.00010e-06
 Reference value :  8.00010e-06
 Reference value :  8.00011e-06
 Reference value :  8.00013e-06
 Reference value :  8.00016e-06
 Reference value :  8.00023e-06
 Reference value :  8.00036e-06
 Reference value :  8.00053e-06
 Reference value :  8.00087e-06
 Reference value :  8.00150e-06
 Reference value :  8.00218e-06
 Reference value :  8.00280e-06
 Reference value :  8.00345e-06
 Reference value :  8.00414e-06
 Reference value :  8.00499e-06
 Reference value :  8.00588e-06
 Reference value :  8.00669e-06
 Reference value :  8.00785e-06
 Reference value :  8.00890e-06
 Reference value :  8.00987e-06
 Reference value :  8.01097e-06
 Reference value :  8.01224e-06
 Reference value :  8.01411e-06
 Reference value :  8.01643e-06
 Reference value :  8.01889e-06
 Reference value :  8.02166e-06
 Reference value :  8.02428e-06
 Reference value :  8.02729e-06
 Reference value :  8.03331e-06
 Reference value :  8.04304e-06
 Reference value :  8.06069e-06
 Reference value :  8.09598e-06
 Reference value :  8.16657e-06
 Reference value :  8.25010e-06
 Reference value :  8.25011e-06
 Reference value :  8.25013e-06
 Reference value :  8.25017e-06
 Reference value :  8.25020e-06
 Reference value :  8.25020e-06
 Reference value :  8.25020e-06
 Reference value :  8.25021e-06
 Reference value :  8.25021e-06
 Reference value :  8.25022e-06
 Reference value :  8.25025e-06
 Reference value :  8.25030e-06
 Reference value :  8.25039e-06
 Reference value :  8.25059e-06
 Reference value :  8.25098e-06
 Reference value :  8.25139e-06
 Reference value :  8.25189e-06
 Reference value :  8.25250e-06
 Reference value :  8.25330e-06
 Reference value :  8.25418e-06
 Reference value :  8.25526e-06
 Reference value :  8.25645e-06
 Reference value :  8.25784e-06
 Reference value :  8.25942e-06
 Reference value :  8.26126e-06
 Reference value :  8.26400e-06
 Reference value :  8.26674e-06
 Reference value :  8.27190e-06
 Reference value :  8.28221e-06
 Reference value :  8.29896e-06
 Reference value :  8.33235e-06
 Reference value :  8.39148e-06
 Reference value :  8.50000e-06
No. of Data Rows : 1323
ngspice-44 done
