
Note: Compatibility modes selected: hs a


Circuit: ** sch_path: /home/audrey/cace/sar-adc-using-sky130-pdk/runs/run_2025-08-29_21-45-48/parameters/power/run_5/power_consumption.sch

option SCALE: Scale is set to 1e-06 for instance and model parameters
option SCALE: Scale is set to 1e-06 for instance and model parameters
option SCALE: Scale is set to 1e-06 for instance and model parameters
option SCALE: Scale is set to 1e-06 for instance and model parameters
Doing analysis at TEMP = 27.000000 and TNOM = 27.000000

Using KLU as Direct Linear Solver
Operating point simulation skipped by 'uic',
  now using transient initial conditions.
 Reference value :  5.00000e-12
 Reference value :  5.12812e-12
 Reference value :  5.38437e-12
 Reference value :  5.89685e-12
 Reference value :  6.92183e-12
 Reference value :  8.78381e-12
 Reference value :  1.17604e-11
 Reference value :  1.71054e-11
 Reference value :  2.75016e-11
 Reference value :  4.14676e-11
 Reference value :  6.45469e-11
 Reference value :  9.36779e-11
 Reference value :  1.44857e-10
 Reference value :  2.06994e-10
 Reference value :  3.25854e-10
 Reference value :  4.85350e-10
 Reference value :  5.00000e-10
 Reference value :  5.02624e-10
 Reference value :  5.07871e-10
 Reference value :  5.18367e-10
 Reference value :  5.39357e-10
 Reference value :  5.81338e-10
 Reference value :  6.65300e-10
 Reference value :  8.33224e-10
 Reference value :  1.16907e-09
 Reference value :  1.79373e-09
 Reference value :  2.55481e-09
 Reference value :  3.66215e-09
 Reference value :  5.32775e-09
 Reference value :  7.55116e-09
 Reference value :  1.19980e-08
 Reference value :  1.81136e-08
 Reference value :  2.70237e-08
 Reference value :  3.68267e-08
 Reference value :  4.88315e-08
 Reference value :  5.99683e-08
 Reference value :  7.44303e-08
 Reference value :  8.94816e-08
 Reference value :  1.03304e-07
 Reference value :  1.13288e-07
 Reference value :  1.21538e-07
 Reference value :  1.29991e-07
 Reference value :  1.37345e-07
 Reference value :  1.44984e-07
 Reference value :  1.55869e-07
 Reference value :  1.66948e-07
 Reference value :  1.84765e-07
 Reference value :  2.02795e-07
 Reference value :  2.21459e-07
 Reference value :  2.35158e-07
 Reference value :  2.49939e-07
 Reference value :  2.63683e-07
 Reference value :  2.81722e-07
 Reference value :  3.02046e-07
 Reference value :  3.26318e-07
 Reference value :  3.61911e-07
 Reference value :  4.05724e-07
 Reference value :  4.70829e-07
 Reference value :  5.00000e-07
 Reference value :  5.06073e-07
 Reference value :  5.18218e-07
 Reference value :  5.42508e-07
 Reference value :  5.86476e-07
 Reference value :  6.65351e-07
 Reference value :  7.65780e-07
 Reference value :  8.44124e-07
 Reference value :  9.26379e-07
 Reference value :  9.83521e-07
 Reference value :  1.00050e-06
 Reference value :  1.00055e-06
 Reference value :  1.00065e-06
 Reference value :  1.00085e-06
 Reference value :  1.00100e-06
 Reference value :  1.00104e-06
 Reference value :  1.00111e-06
 Reference value :  1.00127e-06
 Reference value :  1.00153e-06
 Reference value :  1.00183e-06
 Reference value :  1.00218e-06
 Reference value :  1.00275e-06
 Reference value :  1.00390e-06
 Reference value :  1.00620e-06
 Reference value :  1.01078e-06
 Reference value :  1.01873e-06
 Reference value :  1.02667e-06
 Reference value :  1.03720e-06
 Reference value :  1.04931e-06
 Reference value :  1.06362e-06
 Reference value :  1.07936e-06
 Reference value :  1.08999e-06
 Reference value :  1.09996e-06
 Reference value :  1.10864e-06
 Reference value :  1.11927e-06
 Reference value :  1.13683e-06
 Reference value :  1.15388e-06
 Reference value :  1.16646e-06
 Reference value :  1.17870e-06
 Reference value :  1.19091e-06
 Reference value :  1.20547e-06
 Reference value :  1.22210e-06
 Reference value :  1.24273e-06
 Reference value :  1.25915e-06
 Reference value :  1.27108e-06
 Reference value :  1.28402e-06
 Reference value :  1.29539e-06
 Reference value :  1.30765e-06
 Reference value :  1.32182e-06
 Reference value :  1.33805e-06
 Reference value :  1.35947e-06
 Reference value :  1.38723e-06
 Reference value :  1.41852e-06
 Reference value :  1.44004e-06
 Reference value :  1.46074e-06
 Reference value :  1.48262e-06
 Reference value :  1.50473e-06
 Reference value :  1.52927e-06
 Reference value :  1.55726e-06
 Reference value :  1.57558e-06
 Reference value :  1.59264e-06
 Reference value :  1.60690e-06
 Reference value :  1.62167e-06
 Reference value :  1.63680e-06
 Reference value :  1.65345e-06
 Reference value :  1.67365e-06
 Reference value :  1.69880e-06
 Reference value :  1.73282e-06
 Reference value :  1.77104e-06
 Reference value :  1.80111e-06
 Reference value :  1.83106e-06
 Reference value :  1.85380e-06
 Reference value :  1.87793e-06
 Reference value :  1.90584e-06
 Reference value :  1.93491e-06
 Reference value :  1.97601e-06
 Reference value :  2.00000e-06
 Reference value :  2.00005e-06
 Reference value :  2.00015e-06
 Reference value :  2.00035e-06
 Reference value :  2.00050e-06
 Reference value :  2.00051e-06
 Reference value :  2.00053e-06
 Reference value :  2.00058e-06
 Reference value :  2.00067e-06
 Reference value :  2.00086e-06
 Reference value :  2.00123e-06
 Reference value :  2.00198e-06
 Reference value :  2.00346e-06
 Reference value :  2.00612e-06
 Reference value :  2.00888e-06
 Reference value :  2.01439e-06
 Reference value :  2.02341e-06
 Reference value :  2.03352e-06
 Reference value :  2.04437e-06
 Reference value :  2.06478e-06
 Reference value :  2.09126e-06
 Reference value :  2.13813e-06
 Reference value :  2.21852e-06
 Reference value :  2.35086e-06
 Reference value :  2.58898e-06
 Reference value :  3.00050e-06
 Reference value :  3.00055e-06
 Reference value :  3.00065e-06
 Reference value :  3.00085e-06
 Reference value :  3.00100e-06
 Reference value :  3.00103e-06
 Reference value :  3.00109e-06
 Reference value :  3.00122e-06
 Reference value :  3.00147e-06
 Reference value :  3.00175e-06
 Reference value :  3.00214e-06
 Reference value :  3.00268e-06
 Reference value :  3.00378e-06
 Reference value :  3.00598e-06
 Reference value :  3.01037e-06
 Reference value :  3.01915e-06
 Reference value :  3.03670e-06
 Reference value :  3.05700e-06
 Reference value :  3.08873e-06
 Reference value :  3.13032e-06
 Reference value :  3.19125e-06
 Reference value :  3.27651e-06
 Reference value :  3.39177e-06
 Reference value :  3.55723e-06
 Reference value :  3.79041e-06
 Reference value :  4.00000e-06
 Reference value :  4.00005e-06
 Reference value :  4.00015e-06
 Reference value :  4.00035e-06
 Reference value :  4.00050e-06
 Reference value :  4.00051e-06
 Reference value :  4.00054e-06
 Reference value :  4.00059e-06
 Reference value :  4.00068e-06
 Reference value :  4.00088e-06
 Reference value :  4.00127e-06
 Reference value :  4.00206e-06
 Reference value :  4.00362e-06
 Reference value :  4.00626e-06
 Reference value :  4.00904e-06
 Reference value :  4.01460e-06
 Reference value :  4.02204e-06
 Reference value :  4.03083e-06
 Reference value :  4.04123e-06
 Reference value :  4.06203e-06
 Reference value :  4.09365e-06
 Reference value :  4.15369e-06
 Reference value :  4.26321e-06
 Reference value :  4.43378e-06
 Reference value :  4.72312e-06
 Reference value :  5.00050e-06
 Reference value :  5.00055e-06
 Reference value :  5.00065e-06
 Reference value :  5.00085e-06
 Reference value :  5.00100e-06
 Reference value :  5.00103e-06
 Reference value :  5.00110e-06
 Reference value :  5.00122e-06
 Reference value :  5.00148e-06
 Reference value :  5.00176e-06
 Reference value :  5.00214e-06
 Reference value :  5.00269e-06
 Reference value :  5.00380e-06
 Reference value :  5.00600e-06
 Reference value :  5.01040e-06
 Reference value :  5.01921e-06
 Reference value :  5.03683e-06
 Reference value :  5.05699e-06
 Reference value :  5.08867e-06
 Reference value :  5.12984e-06
 Reference value :  5.18931e-06
 Reference value :  5.27325e-06
 Reference value :  5.37570e-06
 Reference value :  5.56111e-06
 Reference value :  5.77139e-06
 Reference value :  6.00000e-06
 Reference value :  6.00005e-06
 Reference value :  6.00015e-06
 Reference value :  6.00035e-06
 Reference value :  6.00050e-06
 Reference value :  6.00051e-06
 Reference value :  6.00054e-06
 Reference value :  6.00058e-06
 Reference value :  6.00068e-06
 Reference value :  6.00087e-06
 Reference value :  6.00126e-06
 Reference value :  6.00204e-06
 Reference value :  6.00358e-06
 Reference value :  6.00620e-06
 Reference value :  6.00896e-06
 Reference value :  6.01446e-06
 Reference value :  6.02190e-06
 Reference value :  6.03062e-06
 Reference value :  6.04097e-06
 Reference value :  6.06166e-06
 Reference value :  6.09252e-06
 Reference value :  6.15141e-06
 Reference value :  6.25994e-06
 Reference value :  6.42913e-06
 Reference value :  6.71467e-06
 Reference value :  7.00050e-06
 Reference value :  7.00055e-06
 Reference value :  7.00065e-06
 Reference value :  7.00085e-06
 Reference value :  7.00100e-06
 Reference value :  7.00103e-06
 Reference value :  7.00110e-06
 Reference value :  7.00123e-06
 Reference value :  7.00149e-06
 Reference value :  7.00177e-06
 Reference value :  7.00216e-06
 Reference value :  7.00271e-06
 Reference value :  7.00382e-06
 Reference value :  7.00604e-06
 Reference value :  7.01047e-06
 Reference value :  7.01934e-06
 Reference value :  7.03708e-06
 Reference value :  7.05716e-06
 Reference value :  7.08893e-06
 Reference value :  7.12997e-06
 Reference value :  7.18927e-06
 Reference value :  7.27284e-06
 Reference value :  7.37361e-06
 Reference value :  7.56229e-06
 Reference value :  7.76893e-06
 Reference value :  8.00000e-06
 Reference value :  8.00005e-06
 Reference value :  8.00015e-06
 Reference value :  8.00035e-06
 Reference value :  8.00050e-06
 Reference value :  8.00051e-06
 Reference value :  8.00054e-06
 Reference value :  8.00058e-06
 Reference value :  8.00068e-06
 Reference value :  8.00087e-06
 Reference value :  8.00126e-06
 Reference value :  8.00203e-06
 Reference value :  8.00358e-06
 Reference value :  8.00619e-06
 Reference value :  8.00894e-06
 Reference value :  8.01444e-06
 Reference value :  8.02187e-06
 Reference value :  8.03058e-06
 Reference value :  8.04092e-06
 Reference value :  8.06160e-06
 Reference value :  8.09227e-06
 Reference value :  8.15090e-06
 Reference value :  8.25922e-06
 Reference value :  8.42811e-06
 Reference value :  8.71262e-06
 Reference value :  9.00050e-06
 Reference value :  9.00055e-06
 Reference value :  9.00065e-06
 Reference value :  9.00085e-06
 Reference value :  9.00100e-06
 Reference value :  9.00103e-06
 Reference value :  9.00110e-06
 Reference value :  9.00123e-06
 Reference value :  9.00149e-06
 Reference value :  9.00177e-06
 Reference value :  9.00216e-06
 Reference value :  9.00271e-06
 Reference value :  9.00382e-06
 Reference value :  9.00604e-06
 Reference value :  9.01048e-06
 Reference value :  9.01937e-06
 Reference value :  9.03713e-06
 Reference value :  9.05720e-06
 Reference value :  9.08898e-06
 Reference value :  9.13000e-06
 Reference value :  9.18929e-06
 Reference value :  9.27279e-06
 Reference value :  9.37331e-06
 Reference value :  9.56253e-06
 Reference value :  9.76858e-06
 Reference value :  1.00000e-05
 Reference value :  1.00000e-05
 Reference value :  1.00001e-05
 Reference value :  1.00003e-05
 Reference value :  1.00005e-05
 Reference value :  1.00005e-05
 Reference value :  1.00005e-05
 Reference value :  1.00006e-05
 Reference value :  1.00007e-05
 Reference value :  1.00009e-05
 Reference value :  1.00013e-05
 Reference value :  1.00020e-05
 Reference value :  1.00036e-05
 Reference value :  1.00062e-05
 Reference value :  1.00089e-05
 Reference value :  1.00144e-05
 Reference value :  1.00219e-05
 Reference value :  1.00306e-05
 Reference value :  1.00409e-05
 Reference value :  1.00616e-05
 Reference value :  1.00922e-05
 Reference value :  1.01508e-05
 Reference value :  1.02591e-05
 Reference value :  1.04279e-05
 Reference value :  1.07123e-05
 Reference value :  1.10005e-05
 Reference value :  1.10005e-05
 Reference value :  1.10006e-05
 Reference value :  1.10008e-05
 Reference value :  1.10010e-05
 Reference value :  1.10010e-05
 Reference value :  1.10011e-05
 Reference value :  1.10012e-05
 Reference value :  1.10015e-05
 Reference value :  1.10018e-05
 Reference value :  1.10022e-05
 Reference value :  1.10027e-05
 Reference value :  1.10038e-05
 Reference value :  1.10060e-05
 Reference value :  1.10105e-05
 Reference value :  1.10194e-05
 Reference value :  1.10371e-05
 Reference value :  1.10572e-05
 Reference value :  1.10890e-05
 Reference value :  1.11300e-05
 Reference value :  1.11893e-05
 Reference value :  1.12728e-05
 Reference value :  1.13734e-05
 Reference value :  1.15626e-05
 Reference value :  1.17686e-05
 Reference value :  1.20000e-05
 Reference value :  1.20000e-05
 Reference value :  1.20001e-05
 Reference value :  1.20003e-05
 Reference value :  1.20005e-05
 Reference value :  1.20005e-05
 Reference value :  1.20005e-05
 Reference value :  1.20006e-05
 Reference value :  1.20007e-05
 Reference value :  1.20009e-05
 Reference value :  1.20013e-05
 Reference value :  1.20020e-05
 Reference value :  1.20036e-05
 Reference value :  1.20062e-05
 Reference value :  1.20089e-05
 Reference value :  1.20144e-05
 Reference value :  1.20219e-05
 Reference value :  1.20306e-05
 Reference value :  1.20409e-05
 Reference value :  1.20616e-05
 Reference value :  1.20922e-05
 Reference value :  1.21508e-05
 Reference value :  1.22591e-05
 Reference value :  1.24279e-05
 Reference value :  1.27122e-05
 Reference value :  1.30005e-05
 Reference value :  1.30006e-05
 Reference value :  1.30007e-05
 Reference value :  1.30009e-05
 Reference value :  1.30010e-05
 Reference value :  1.30010e-05
 Reference value :  1.30011e-05
 Reference value :  1.30012e-05
 Reference value :  1.30015e-05
 Reference value :  1.30018e-05
 Reference value :  1.30022e-05
 Reference value :  1.30027e-05
 Reference value :  1.30038e-05
 Reference value :  1.30060e-05
 Reference value :  1.30105e-05
 Reference value :  1.30194e-05
 Reference value :  1.30371e-05
 Reference value :  1.30572e-05
 Reference value :  1.30890e-05
 Reference value :  1.31300e-05
 Reference value :  1.31893e-05
 Reference value :  1.32728e-05
 Reference value :  1.33734e-05
 Reference value :  1.35626e-05
 Reference value :  1.37686e-05
 Reference value :  1.40000e-05
 Reference value :  1.40000e-05
 Reference value :  1.40002e-05
 Reference value :  1.40004e-05
 Reference value :  1.40005e-05
 Reference value :  1.40005e-05
 Reference value :  1.40005e-05
 Reference value :  1.40006e-05
 Reference value :  1.40007e-05
 Reference value :  1.40009e-05
 Reference value :  1.40013e-05
 Reference value :  1.40020e-05
 Reference value :  1.40036e-05
 Reference value :  1.40062e-05
 Reference value :  1.40089e-05
 Reference value :  1.40144e-05
 Reference value :  1.40219e-05
 Reference value :  1.40306e-05
 Reference value :  1.40409e-05
 Reference value :  1.40616e-05
 Reference value :  1.40922e-05
 Reference value :  1.41508e-05
 Reference value :  1.42591e-05
 Reference value :  1.44279e-05
 Reference value :  1.47122e-05
 Reference value :  1.50005e-05
 Reference value :  1.50005e-05
 Reference value :  1.50007e-05
 Reference value :  1.50009e-05
 Reference value :  1.50010e-05
 Reference value :  1.50010e-05
 Reference value :  1.50011e-05
 Reference value :  1.50012e-05
 Reference value :  1.50015e-05
 Reference value :  1.50018e-05
 Reference value :  1.50022e-05
 Reference value :  1.50027e-05
 Reference value :  1.50038e-05
 Reference value :  1.50060e-05
 Reference value :  1.50105e-05
 Reference value :  1.50194e-05
 Reference value :  1.50371e-05
 Reference value :  1.50572e-05
 Reference value :  1.50890e-05
 Reference value :  1.51300e-05
 Reference value :  1.51893e-05
 Reference value :  1.52728e-05
 Reference value :  1.53733e-05
 Reference value :  1.55626e-05
 Reference value :  1.57685e-05
 Reference value :  1.60000e-05
 Reference value :  1.60000e-05
 Reference value :  1.60001e-05
 Reference value :  1.60004e-05
 Reference value :  1.60005e-05
 Reference value :  1.60005e-05
 Reference value :  1.60005e-05
 Reference value :  1.60006e-05
 Reference value :  1.60007e-05
 Reference value :  1.60009e-05
 Reference value :  1.60013e-05
 Reference value :  1.60020e-05
 Reference value :  1.60036e-05
 Reference value :  1.60062e-05
 Reference value :  1.60089e-05
 Reference value :  1.60144e-05
 Reference value :  1.60219e-05
 Reference value :  1.60306e-05
 Reference value :  1.60409e-05
 Reference value :  1.60616e-05
 Reference value :  1.60922e-05
 Reference value :  1.61508e-05
 Reference value :  1.62591e-05
 Reference value :  1.64279e-05
 Reference value :  1.67122e-05
 Reference value :  1.70005e-05
 Reference value :  1.70006e-05
 Reference value :  1.70007e-05
 Reference value :  1.70009e-05
 Reference value :  1.70010e-05
 Reference value :  1.70010e-05
 Reference value :  1.70011e-05
 Reference value :  1.70012e-05
 Reference value :  1.70015e-05
 Reference value :  1.70018e-05
 Reference value :  1.70022e-05
 Reference value :  1.70027e-05
 Reference value :  1.70038e-05
 Reference value :  1.70060e-05
 Reference value :  1.70105e-05
 Reference value :  1.70194e-05
 Reference value :  1.70371e-05
 Reference value :  1.70572e-05
 Reference value :  1.70890e-05
 Reference value :  1.71300e-05
 Reference value :  1.71893e-05
 Reference value :  1.72728e-05
 Reference value :  1.73733e-05
 Reference value :  1.75626e-05
 Reference value :  1.77685e-05
 Reference value :  1.80000e-05
 Reference value :  1.80001e-05
 Reference value :  1.80002e-05
 Reference value :  1.80004e-05
 Reference value :  1.80005e-05
 Reference value :  1.80005e-05
 Reference value :  1.80005e-05
 Reference value :  1.80006e-05
 Reference value :  1.80007e-05
 Reference value :  1.80009e-05
 Reference value :  1.80013e-05
 Reference value :  1.80020e-05
 Reference value :  1.80036e-05
 Reference value :  1.80062e-05
 Reference value :  1.80089e-05
 Reference value :  1.80144e-05
 Reference value :  1.80219e-05
 Reference value :  1.80306e-05
 Reference value :  1.80409e-05
 Reference value :  1.80616e-05
 Reference value :  1.80922e-05
 Reference value :  1.81508e-05
 Reference value :  1.82591e-05
 Reference value :  1.84279e-05
 Reference value :  1.87122e-05
 Reference value :  1.90005e-05
 Reference value :  1.90006e-05
 Reference value :  1.90007e-05
 Reference value :  1.90009e-05
 Reference value :  1.90010e-05
 Reference value :  1.90010e-05
 Reference value :  1.90011e-05
 Reference value :  1.90012e-05
 Reference value :  1.90015e-05
 Reference value :  1.90018e-05
 Reference value :  1.90022e-05
 Reference value :  1.90027e-05
 Reference value :  1.90038e-05
 Reference value :  1.90060e-05
 Reference value :  1.90105e-05
 Reference value :  1.90194e-05
 Reference value :  1.90371e-05
 Reference value :  1.90572e-05
 Reference value :  1.90890e-05
 Reference value :  1.91300e-05
 Reference value :  1.91893e-05
 Reference value :  1.92728e-05
 Reference value :  1.93733e-05
 Reference value :  1.95626e-05
 Reference value :  1.97685e-05
 Reference value :  2.00000e-05
 Reference value :  2.00001e-05
 Reference value :  2.00002e-05
 Reference value :  2.00004e-05
 Reference value :  2.00005e-05
 Reference value :  2.00005e-05
 Reference value :  2.00005e-05
 Reference value :  2.00006e-05
 Reference value :  2.00007e-05
 Reference value :  2.00009e-05
 Reference value :  2.00013e-05
 Reference value :  2.00020e-05
 Reference value :  2.00036e-05
 Reference value :  2.00062e-05
 Reference value :  2.00089e-05
 Reference value :  2.00144e-05
 Reference value :  2.00219e-05
 Reference value :  2.00306e-05
 Reference value :  2.00409e-05
 Reference value :  2.00616e-05
 Reference value :  2.00922e-05
 Reference value :  2.01508e-05
 Reference value :  2.02591e-05
 Reference value :  2.04279e-05
 Reference value :  2.07122e-05
 Reference value :  2.10005e-05
 Reference value :  2.10005e-05
 Reference value :  2.10006e-05
 Reference value :  2.10008e-05
 Reference value :  2.10010e-05
 Reference value :  2.10010e-05
 Reference value :  2.10011e-05
 Reference value :  2.10012e-05
 Reference value :  2.10015e-05
 Reference value :  2.10018e-05
 Reference value :  2.10022e-05
 Reference value :  2.10027e-05
 Reference value :  2.10038e-05
 Reference value :  2.10060e-05
 Reference value :  2.10105e-05
 Reference value :  2.10194e-05
 Reference value :  2.10371e-05
 Reference value :  2.10572e-05
 Reference value :  2.10890e-05
 Reference value :  2.11300e-05
 Reference value :  2.11893e-05
 Reference value :  2.12728e-05
 Reference value :  2.13733e-05
 Reference value :  2.15626e-05
 Reference value :  2.17685e-05
 Reference value :  2.20000e-05
 Reference value :  2.20000e-05
 Reference value :  2.20001e-05
 Reference value :  2.20004e-05
 Reference value :  2.20005e-05
 Reference value :  2.20005e-05
 Reference value :  2.20005e-05
 Reference value :  2.20006e-05
 Reference value :  2.20007e-05
 Reference value :  2.20009e-05
 Reference value :  2.20013e-05
 Reference value :  2.20020e-05
 Reference value :  2.20036e-05
 Reference value :  2.20062e-05
 Reference value :  2.20089e-05
 Reference value :  2.20144e-05
 Reference value :  2.20219e-05
 Reference value :  2.20306e-05
 Reference value :  2.20409e-05
 Reference value :  2.20616e-05
 Reference value :  2.20922e-05
 Reference value :  2.21508e-05
 Reference value :  2.22591e-05
 Reference value :  2.24279e-05
 Reference value :  2.27123e-05
 Reference value :  2.30005e-05
 Reference value :  2.30005e-05
 Reference value :  2.30006e-05
 Reference value :  2.30008e-05
 Reference value :  2.30010e-05
 Reference value :  2.30010e-05
 Reference value :  2.30011e-05
 Reference value :  2.30012e-05
 Reference value :  2.30015e-05
 Reference value :  2.30018e-05
 Reference value :  2.30022e-05
 Reference value :  2.30027e-05
 Reference value :  2.30038e-05
 Reference value :  2.30060e-05
 Reference value :  2.30105e-05
 Reference value :  2.30194e-05
 Reference value :  2.30371e-05
 Reference value :  2.30572e-05
 Reference value :  2.30890e-05
 Reference value :  2.31300e-05
 Reference value :  2.31893e-05
 Reference value :  2.32728e-05
 Reference value :  2.33733e-05
 Reference value :  2.35626e-05
 Reference value :  2.37685e-05
 Reference value :  2.40000e-05
 Reference value :  2.40001e-05
 Reference value :  2.40002e-05
 Reference value :  2.40004e-05
 Reference value :  2.40005e-05
 Reference value :  2.40005e-05
 Reference value :  2.40005e-05
 Reference value :  2.40006e-05
 Reference value :  2.40007e-05
 Reference value :  2.40009e-05
 Reference value :  2.40013e-05
 Reference value :  2.40020e-05
 Reference value :  2.40036e-05
 Reference value :  2.40062e-05
 Reference value :  2.40089e-05
 Reference value :  2.40144e-05
 Reference value :  2.40219e-05
 Reference value :  2.40306e-05
 Reference value :  2.40409e-05
 Reference value :  2.40616e-05
 Reference value :  2.40922e-05
 Reference value :  2.41508e-05
 Reference value :  2.42591e-05
 Reference value :  2.44279e-05
 Reference value :  2.47123e-05
 Reference value :  2.50005e-05
 Reference value :  2.50005e-05
 Reference value :  2.50006e-05
 Reference value :  2.50008e-05
 Reference value :  2.50010e-05
 Reference value :  2.50010e-05
 Reference value :  2.50011e-05
 Reference value :  2.50012e-05
 Reference value :  2.50015e-05
 Reference value :  2.50018e-05
 Reference value :  2.50022e-05
 Reference value :  2.50027e-05
 Reference value :  2.50038e-05
 Reference value :  2.50060e-05
 Reference value :  2.50105e-05
 Reference value :  2.50194e-05
 Reference value :  2.50371e-05
 Reference value :  2.50572e-05
 Reference value :  2.50890e-05
 Reference value :  2.51300e-05
 Reference value :  2.51893e-05
 Reference value :  2.52728e-05
 Reference value :  2.53733e-05
 Reference value :  2.55626e-05
 Reference value :  2.57685e-05
 Reference value :  2.60000e-05
 Reference value :  2.60001e-05
 Reference value :  2.60002e-05
 Reference value :  2.60004e-05
 Reference value :  2.60005e-05
 Reference value :  2.60005e-05
 Reference value :  2.60005e-05
 Reference value :  2.60006e-05
 Reference value :  2.60007e-05
 Reference value :  2.60009e-05
 Reference value :  2.60013e-05
 Reference value :  2.60020e-05
 Reference value :  2.60036e-05
 Reference value :  2.60062e-05
 Reference value :  2.60089e-05
 Reference value :  2.60144e-05
 Reference value :  2.60219e-05
 Reference value :  2.60306e-05
 Reference value :  2.60409e-05
 Reference value :  2.60616e-05
 Reference value :  2.60922e-05
 Reference value :  2.61508e-05
 Reference value :  2.62591e-05
 Reference value :  2.64279e-05
 Reference value :  2.67123e-05
 Reference value :  2.70005e-05
 Reference value :  2.70006e-05
 Reference value :  2.70007e-05
 Reference value :  2.70009e-05
 Reference value :  2.70010e-05
 Reference value :  2.70010e-05
 Reference value :  2.70011e-05
 Reference value :  2.70012e-05
 Reference value :  2.70015e-05
 Reference value :  2.70018e-05
 Reference value :  2.70022e-05
 Reference value :  2.70027e-05
 Reference value :  2.70038e-05
 Reference value :  2.70060e-05
 Reference value :  2.70105e-05
 Reference value :  2.70194e-05
 Reference value :  2.70371e-05
 Reference value :  2.70572e-05
 Reference value :  2.70890e-05
 Reference value :  2.71300e-05
 Reference value :  2.71893e-05
 Reference value :  2.72728e-05
 Reference value :  2.73733e-05
 Reference value :  2.75626e-05
 Reference value :  2.77686e-05
 Reference value :  2.80000e-05
 Reference value :  2.80000e-05
 Reference value :  2.80001e-05
 Reference value :  2.80004e-05
 Reference value :  2.80005e-05
 Reference value :  2.80005e-05
 Reference value :  2.80005e-05
 Reference value :  2.80006e-05
 Reference value :  2.80007e-05
 Reference value :  2.80009e-05
 Reference value :  2.80013e-05
 Reference value :  2.80020e-05
 Reference value :  2.80036e-05
 Reference value :  2.80062e-05
 Reference value :  2.80089e-05
 Reference value :  2.80144e-05
 Reference value :  2.80219e-05
 Reference value :  2.80306e-05
 Reference value :  2.80409e-05
 Reference value :  2.80616e-05
 Reference value :  2.80922e-05
 Reference value :  2.81508e-05
 Reference value :  2.82591e-05
 Reference value :  2.84279e-05
 Reference value :  2.87123e-05
 Reference value :  2.90005e-05
 Reference value :  2.90006e-05
 Reference value :  2.90007e-05
 Reference value :  2.90009e-05
 Reference value :  2.90010e-05
 Reference value :  2.90010e-05
 Reference value :  2.90011e-05
 Reference value :  2.90012e-05
 Reference value :  2.90015e-05
 Reference value :  2.90018e-05
 Reference value :  2.90022e-05
 Reference value :  2.90027e-05
 Reference value :  2.90038e-05
 Reference value :  2.90060e-05
 Reference value :  2.90105e-05
 Reference value :  2.90194e-05
 Reference value :  2.90371e-05
 Reference value :  2.90572e-05
 Reference value :  2.90890e-05
 Reference value :  2.91300e-05
 Reference value :  2.91893e-05
 Reference value :  2.92728e-05
 Reference value :  2.93733e-05
 Reference value :  2.95626e-05
 Reference value :  2.97686e-05
 Reference value :  3.00000e-05
 Reference value :  3.00001e-05
 Reference value :  3.00002e-05
 Reference value :  3.00004e-05
 Reference value :  3.00005e-05
 Reference value :  3.00005e-05
 Reference value :  3.00005e-05
 Reference value :  3.00006e-05
 Reference value :  3.00007e-05
 Reference value :  3.00009e-05
 Reference value :  3.00013e-05
 Reference value :  3.00020e-05
 Reference value :  3.00036e-05
 Reference value :  3.00062e-05
 Reference value :  3.00089e-05
 Reference value :  3.00144e-05
 Reference value :  3.00219e-05
 Reference value :  3.00306e-05
 Reference value :  3.00409e-05
 Reference value :  3.00616e-05
 Reference value :  3.00922e-05
 Reference value :  3.01508e-05
 Reference value :  3.02591e-05
 Reference value :  3.04279e-05
 Reference value :  3.07123e-05
 Reference value :  3.10005e-05
 Reference value :  3.10005e-05
 Reference value :  3.10006e-05
 Reference value :  3.10008e-05
 Reference value :  3.10010e-05
 Reference value :  3.10010e-05
 Reference value :  3.10011e-05
 Reference value :  3.10012e-05
 Reference value :  3.10015e-05
 Reference value :  3.10018e-05
 Reference value :  3.10022e-05
 Reference value :  3.10027e-05
 Reference value :  3.10038e-05
 Reference value :  3.10060e-05
 Reference value :  3.10105e-05
 Reference value :  3.10194e-05
 Reference value :  3.10371e-05
 Reference value :  3.10572e-05
 Reference value :  3.10890e-05
 Reference value :  3.11300e-05
 Reference value :  3.11893e-05
 Reference value :  3.12728e-05
 Reference value :  3.13733e-05
 Reference value :  3.15626e-05
 Reference value :  3.17686e-05
 Reference value :  3.20000e-05
 Reference value :  3.20000e-05
 Reference value :  3.20001e-05
 Reference value :  3.20003e-05
 Reference value :  3.20005e-05
 Reference value :  3.20005e-05
 Reference value :  3.20005e-05
 Reference value :  3.20006e-05
 Reference value :  3.20007e-05
 Reference value :  3.20009e-05
 Reference value :  3.20013e-05
 Reference value :  3.20020e-05
 Reference value :  3.20036e-05
 Reference value :  3.20062e-05
 Reference value :  3.20089e-05
 Reference value :  3.20144e-05
 Reference value :  3.20219e-05
 Reference value :  3.20306e-05
 Reference value :  3.20409e-05
 Reference value :  3.20616e-05
 Reference value :  3.20922e-05
 Reference value :  3.21508e-05
 Reference value :  3.22591e-05
 Reference value :  3.24279e-05
 Reference value :  3.27123e-05
 Reference value :  3.30005e-05
 Reference value :  3.30006e-05
 Reference value :  3.30007e-05
 Reference value :  3.30009e-05
 Reference value :  3.30010e-05
 Reference value :  3.30010e-05
 Reference value :  3.30011e-05
 Reference value :  3.30012e-05
 Reference value :  3.30015e-05
 Reference value :  3.30018e-05
 Reference value :  3.30022e-05
 Reference value :  3.30027e-05
 Reference value :  3.30038e-05
 Reference value :  3.30060e-05
 Reference value :  3.30105e-05
 Reference value :  3.30194e-05
 Reference value :  3.30371e-05
 Reference value :  3.30572e-05
 Reference value :  3.30890e-05
 Reference value :  3.31300e-05
 Reference value :  3.31893e-05
 Reference value :  3.32728e-05
 Reference value :  3.33733e-05
 Reference value :  3.35626e-05
 Reference value :  3.37686e-05
 Reference value :  3.40000e-05
No. of Data Rows : 935
ngspice-44 done
