
Note: Compatibility modes selected: hs a


Circuit: ** sch_path: /home/madra/cace/sar-adc-using-sky130-pdk/runs/run_2025-09-05_16-18-11/parameters/inl/run_1/sar_output.sch

option SCALE: Scale is set to 1e-06 for instance and model parameters
option SCALE: Scale is set to 1e-06 for instance and model parameters
option SCALE: Scale is set to 1e-06 for instance and model parameters
option SCALE: Scale is set to 1e-06 for instance and model parameters
Doing analysis at TEMP = 27.000000 and TNOM = 27.000000

Using KLU as Direct Linear Solver
Operating point simulation skipped by 'uic',
  now using transient initial conditions.
 Reference value :  1.00000e-12
 Reference value :  1.02386e-12
 Reference value :  1.07158e-12
 Reference value :  1.14190e-12
 Reference value :  1.21991e-12
 Reference value :  1.35798e-12
 Reference value :  1.57247e-12
 Reference value :  1.90211e-12
 Reference value :  2.53055e-12
 Reference value :  3.45802e-12
 Reference value :  4.88210e-12
 Reference value :  6.40387e-12
 Reference value :  8.74818e-12
 Reference value :  1.27820e-11
 Reference value :  1.82863e-11
 Reference value :  2.51898e-11
 Reference value :  3.42507e-11
 Reference value :  4.43036e-11
 Reference value :  6.01782e-11
 Reference value :  7.84685e-11
 Reference value :  1.00000e-10
 Reference value :  1.00415e-10
 Reference value :  1.01244e-10
 Reference value :  1.02903e-10
 Reference value :  1.06188e-10
 Reference value :  1.12757e-10
 Reference value :  1.25894e-10
 Reference value :  1.52170e-10
 Reference value :  1.89555e-10
 Reference value :  2.36729e-10
 Reference value :  3.04408e-10
 Reference value :  4.24720e-10
 Reference value :  6.56577e-10
 Reference value :  9.38380e-10
 Reference value :  1.37415e-09
 Reference value :  1.85697e-09
 Reference value :  2.62726e-09
 Reference value :  3.48294e-09
 Reference value :  4.27327e-09
 Reference value :  5.14420e-09
 Reference value :  5.99510e-09
 Reference value :  6.88316e-09
 Reference value :  7.90549e-09
 Reference value :  8.93644e-09
 Reference value :  1.01302e-08
 Reference value :  1.09624e-08
 Reference value :  1.18641e-08
 Reference value :  1.28744e-08
 Reference value :  1.39044e-08
 Reference value :  1.50297e-08
 Reference value :  1.62691e-08
 Reference value :  1.74556e-08
 Reference value :  1.87258e-08
 Reference value :  2.01784e-08
 Reference value :  2.15942e-08
 Reference value :  2.28461e-08
 Reference value :  2.41436e-08
 Reference value :  2.56779e-08
 Reference value :  2.77269e-08
 Reference value :  2.98593e-08
 Reference value :  3.23310e-08
 Reference value :  3.50199e-08
 Reference value :  4.03976e-08
 Reference value :  4.99086e-08
 Reference value :  6.45592e-08
 Reference value :  9.38604e-08
 Reference value :  1.28986e-07
 Reference value :  1.97202e-07
 Reference value :  2.50100e-07
 Reference value :  2.50110e-07
 Reference value :  2.50130e-07
 Reference value :  2.50170e-07
 Reference value :  2.50200e-07
 Reference value :  2.50201e-07
 Reference value :  2.50202e-07
 Reference value :  2.50204e-07
 Reference value :  2.50208e-07
 Reference value :  2.50216e-07
 Reference value :  2.50232e-07
 Reference value :  2.50265e-07
 Reference value :  2.50331e-07
 Reference value :  2.50412e-07
 Reference value :  2.50575e-07
 Reference value :  2.50741e-07
 Reference value :  2.51073e-07
 Reference value :  2.51459e-07
 Reference value :  2.52119e-07
 Reference value :  2.52784e-07
 Reference value :  2.53506e-07
 Reference value :  2.54463e-07
 Reference value :  2.55477e-07
 Reference value :  2.56513e-07
 Reference value :  2.57710e-07
 Reference value :  2.58913e-07
 Reference value :  2.60089e-07
 Reference value :  2.61421e-07
 Reference value :  2.63123e-07
 Reference value :  2.65860e-07
 Reference value :  2.69959e-07
 Reference value :  2.77745e-07
 Reference value :  2.91060e-07
 Reference value :  3.15787e-07
 Reference value :  3.60444e-07
 Reference value :  4.41173e-07
 Reference value :  5.00000e-07
 Reference value :  5.00010e-07
 Reference value :  5.00030e-07
 Reference value :  5.00070e-07
 Reference value :  5.00100e-07
 Reference value :  5.00101e-07
 Reference value :  5.00102e-07
 Reference value :  5.00104e-07
 Reference value :  5.00108e-07
 Reference value :  5.00116e-07
 Reference value :  5.00133e-07
 Reference value :  5.00166e-07
 Reference value :  5.00232e-07
 Reference value :  5.00364e-07
 Reference value :  5.00562e-07
 Reference value :  5.00958e-07
 Reference value :  5.01468e-07
 Reference value :  5.02004e-07
 Reference value :  5.02765e-07
 Reference value :  5.03571e-07
 Reference value :  5.04319e-07
 Reference value :  5.05131e-07
 Reference value :  5.06130e-07
 Reference value :  5.07181e-07
 Reference value :  5.08420e-07
 Reference value :  5.09734e-07
 Reference value :  5.11701e-07
 Reference value :  5.13522e-07
 Reference value :  5.15548e-07
 Reference value :  5.17492e-07
 Reference value :  5.19715e-07
 Reference value :  5.24161e-07
 Reference value :  5.27116e-07
 Reference value :  5.30575e-07
 Reference value :  5.34387e-07
 Reference value :  5.38423e-07
 Reference value :  5.44642e-07
 Reference value :  5.50596e-07
 Reference value :  5.60296e-07
 Reference value :  5.74322e-07
 Reference value :  6.02374e-07
 Reference value :  6.24460e-07
 Reference value :  6.46040e-07
 Reference value :  6.60049e-07
 Reference value :  6.73593e-07
 Reference value :  6.83928e-07
 Reference value :  6.92311e-07
 Reference value :  7.01449e-07
 Reference value :  7.16901e-07
 Reference value :  7.36272e-07
 Reference value :  7.50100e-07
 Reference value :  7.50110e-07
 Reference value :  7.50130e-07
 Reference value :  7.50170e-07
 Reference value :  7.50200e-07
 Reference value :  7.50201e-07
 Reference value :  7.50202e-07
 Reference value :  7.50204e-07
 Reference value :  7.50208e-07
 Reference value :  7.50216e-07
 Reference value :  7.50233e-07
 Reference value :  7.50266e-07
 Reference value :  7.50333e-07
 Reference value :  7.50467e-07
 Reference value :  7.50644e-07
 Reference value :  7.50914e-07
 Reference value :  7.51454e-07
 Reference value :  7.52100e-07
 Reference value :  7.52801e-07
 Reference value :  7.53530e-07
 Reference value :  7.54428e-07
 Reference value :  7.55526e-07
 Reference value :  7.56676e-07
 Reference value :  7.57720e-07
 Reference value :  7.58827e-07
 Reference value :  7.59824e-07
 Reference value :  7.60878e-07
 Reference value :  7.62118e-07
 Reference value :  7.63421e-07
 Reference value :  7.64990e-07
 Reference value :  7.66938e-07
 Reference value :  7.69569e-07
 Reference value :  7.72691e-07
 Reference value :  7.77608e-07
 Reference value :  7.87441e-07
 Reference value :  8.04732e-07
 Reference value :  8.36698e-07
 Reference value :  8.96657e-07
 Reference value :  1.00000e-06
 Reference value :  1.00001e-06
 Reference value :  1.00003e-06
 Reference value :  1.00007e-06
 Reference value :  1.00010e-06
 Reference value :  1.00010e-06
 Reference value :  1.00010e-06
 Reference value :  1.00010e-06
 Reference value :  1.00011e-06
 Reference value :  1.00012e-06
 Reference value :  1.00013e-06
 Reference value :  1.00017e-06
 Reference value :  1.00023e-06
 Reference value :  1.00036e-06
 Reference value :  1.00056e-06
 Reference value :  1.00096e-06
 Reference value :  1.00147e-06
 Reference value :  1.00201e-06
 Reference value :  1.00276e-06
 Reference value :  1.00346e-06
 Reference value :  1.00420e-06
 Reference value :  1.00499e-06
 Reference value :  1.00587e-06
 Reference value :  1.00691e-06
 Reference value :  1.00768e-06
 Reference value :  1.00855e-06
 Reference value :  1.00939e-06
 Reference value :  1.01026e-06
 Reference value :  1.01143e-06
 Reference value :  1.01268e-06
 Reference value :  1.01518e-06
 Reference value :  1.01755e-06
 Reference value :  1.01942e-06
 Reference value :  1.02150e-06
 Reference value :  1.02436e-06
 Reference value :  1.02665e-06
 Reference value :  1.02867e-06
 Reference value :  1.03015e-06
 Reference value :  1.03158e-06
 Reference value :  1.03325e-06
 Reference value :  1.03493e-06
 Reference value :  1.03693e-06
 Reference value :  1.03994e-06
 Reference value :  1.04322e-06
 Reference value :  1.04980e-06
 Reference value :  1.05965e-06
 Reference value :  1.07402e-06
 Reference value :  1.08812e-06
 Reference value :  1.10389e-06
 Reference value :  1.11440e-06
 Reference value :  1.12435e-06
 Reference value :  1.13861e-06
 Reference value :  1.15313e-06
 Reference value :  1.17205e-06
 Reference value :  1.19486e-06
 Reference value :  1.23041e-06
 Reference value :  1.25010e-06
 Reference value :  1.25011e-06
 Reference value :  1.25013e-06
 Reference value :  1.25017e-06
 Reference value :  1.25020e-06
 Reference value :  1.25020e-06
 Reference value :  1.25020e-06
 Reference value :  1.25020e-06
 Reference value :  1.25021e-06
 Reference value :  1.25022e-06
 Reference value :  1.25023e-06
 Reference value :  1.25027e-06
 Reference value :  1.25033e-06
 Reference value :  1.25047e-06
 Reference value :  1.25064e-06
 Reference value :  1.25091e-06
 Reference value :  1.25145e-06
 Reference value :  1.25210e-06
 Reference value :  1.25288e-06
 Reference value :  1.25358e-06
 Reference value :  1.25455e-06
 Reference value :  1.25561e-06
 Reference value :  1.25655e-06
 Reference value :  1.25765e-06
 Reference value :  1.25879e-06
 Reference value :  1.25995e-06
 Reference value :  1.26149e-06
 Reference value :  1.26405e-06
 Reference value :  1.26750e-06
 Reference value :  1.27285e-06
 Reference value :  1.28355e-06
 Reference value :  1.29991e-06
 Reference value :  1.33261e-06
 Reference value :  1.39801e-06
 Reference value :  1.50000e-06
 Reference value :  1.50001e-06
 Reference value :  1.50003e-06
 Reference value :  1.50007e-06
 Reference value :  1.50010e-06
 Reference value :  1.50010e-06
 Reference value :  1.50010e-06
 Reference value :  1.50010e-06
 Reference value :  1.50011e-06
 Reference value :  1.50012e-06
 Reference value :  1.50013e-06
 Reference value :  1.50017e-06
 Reference value :  1.50023e-06
 Reference value :  1.50036e-06
 Reference value :  1.50056e-06
 Reference value :  1.50095e-06
 Reference value :  1.50146e-06
 Reference value :  1.50200e-06
 Reference value :  1.50275e-06
 Reference value :  1.50344e-06
 Reference value :  1.50417e-06
 Reference value :  1.50501e-06
 Reference value :  1.50593e-06
 Reference value :  1.50689e-06
 Reference value :  1.50789e-06
 Reference value :  1.50945e-06
 Reference value :  1.51099e-06
 Reference value :  1.51307e-06
 Reference value :  1.51465e-06
 Reference value :  1.51637e-06
 Reference value :  1.51844e-06
 Reference value :  1.52066e-06
 Reference value :  1.52444e-06
 Reference value :  1.52946e-06
 Reference value :  1.53778e-06
 Reference value :  1.55132e-06
 Reference value :  1.57441e-06
 Reference value :  1.62040e-06
 Reference value :  1.70003e-06
 Reference value :  1.75010e-06
 Reference value :  1.75011e-06
 Reference value :  1.75013e-06
 Reference value :  1.75017e-06
 Reference value :  1.75020e-06
 Reference value :  1.75020e-06
 Reference value :  1.75020e-06
 Reference value :  1.75020e-06
 Reference value :  1.75021e-06
 Reference value :  1.75022e-06
 Reference value :  1.75023e-06
 Reference value :  1.75027e-06
 Reference value :  1.75033e-06
 Reference value :  1.75047e-06
 Reference value :  1.75064e-06
 Reference value :  1.75091e-06
 Reference value :  1.75145e-06
 Reference value :  1.75210e-06
 Reference value :  1.75288e-06
 Reference value :  1.75358e-06
 Reference value :  1.75454e-06
 Reference value :  1.75561e-06
 Reference value :  1.75653e-06
 Reference value :  1.75762e-06
 Reference value :  1.75852e-06
 Reference value :  1.75951e-06
 Reference value :  1.76068e-06
 Reference value :  1.76201e-06
 Reference value :  1.76467e-06
 Reference value :  1.76854e-06
 Reference value :  1.77527e-06
 Reference value :  1.78843e-06
 Reference value :  1.81009e-06
 Reference value :  1.85340e-06
 Reference value :  1.94003e-06
 Reference value :  2.00000e-06
 Reference value :  2.00001e-06
 Reference value :  2.00003e-06
 Reference value :  2.00007e-06
 Reference value :  2.00010e-06
 Reference value :  2.00010e-06
 Reference value :  2.00010e-06
 Reference value :  2.00010e-06
 Reference value :  2.00011e-06
 Reference value :  2.00012e-06
 Reference value :  2.00013e-06
 Reference value :  2.00017e-06
 Reference value :  2.00023e-06
 Reference value :  2.00036e-06
 Reference value :  2.00056e-06
 Reference value :  2.00095e-06
 Reference value :  2.00146e-06
 Reference value :  2.00200e-06
 Reference value :  2.00275e-06
 Reference value :  2.00345e-06
 Reference value :  2.00418e-06
 Reference value :  2.00498e-06
 Reference value :  2.00586e-06
 Reference value :  2.00661e-06
 Reference value :  2.00746e-06
 Reference value :  2.00819e-06
 Reference value :  2.00904e-06
 Reference value :  2.01012e-06
 Reference value :  2.01127e-06
 Reference value :  2.01328e-06
 Reference value :  2.01572e-06
 Reference value :  2.01879e-06
 Reference value :  2.02225e-06
 Reference value :  2.02507e-06
 Reference value :  2.02734e-06
 Reference value :  2.02947e-06
 Reference value :  2.03160e-06
 Reference value :  2.03377e-06
 Reference value :  2.03632e-06
 Reference value :  2.03955e-06
 Reference value :  2.04499e-06
 Reference value :  2.05226e-06
 Reference value :  2.06481e-06
 Reference value :  2.08380e-06
 Reference value :  2.11356e-06
 Reference value :  2.16291e-06
 Reference value :  2.24261e-06
 Reference value :  2.25010e-06
 Reference value :  2.25011e-06
 Reference value :  2.25013e-06
 Reference value :  2.25017e-06
 Reference value :  2.25020e-06
 Reference value :  2.25020e-06
 Reference value :  2.25020e-06
 Reference value :  2.25020e-06
 Reference value :  2.25021e-06
 Reference value :  2.25022e-06
 Reference value :  2.25023e-06
 Reference value :  2.25027e-06
 Reference value :  2.25033e-06
 Reference value :  2.25047e-06
 Reference value :  2.25064e-06
 Reference value :  2.25091e-06
 Reference value :  2.25145e-06
 Reference value :  2.25210e-06
 Reference value :  2.25288e-06
 Reference value :  2.25358e-06
 Reference value :  2.25454e-06
 Reference value :  2.25561e-06
 Reference value :  2.25659e-06
 Reference value :  2.25771e-06
 Reference value :  2.25879e-06
 Reference value :  2.26041e-06
 Reference value :  2.26247e-06
 Reference value :  2.26506e-06
 Reference value :  2.26893e-06
 Reference value :  2.27570e-06
 Reference value :  2.28667e-06
 Reference value :  2.30514e-06
 Reference value :  2.34208e-06
 Reference value :  2.41465e-06
 Reference value :  2.50000e-06
 Reference value :  2.50001e-06
 Reference value :  2.50003e-06
 Reference value :  2.50007e-06
 Reference value :  2.50010e-06
 Reference value :  2.50010e-06
 Reference value :  2.50010e-06
 Reference value :  2.50010e-06
 Reference value :  2.50011e-06
 Reference value :  2.50012e-06
 Reference value :  2.50013e-06
 Reference value :  2.50017e-06
 Reference value :  2.50023e-06
 Reference value :  2.50036e-06
 Reference value :  2.50055e-06
 Reference value :  2.50091e-06
 Reference value :  2.50141e-06
 Reference value :  2.50194e-06
 Reference value :  2.50269e-06
 Reference value :  2.50338e-06
 Reference value :  2.50409e-06
 Reference value :  2.50487e-06
 Reference value :  2.50575e-06
 Reference value :  2.50670e-06
 Reference value :  2.50792e-06
 Reference value :  2.50945e-06
 Reference value :  2.51166e-06
 Reference value :  2.51318e-06
 Reference value :  2.51483e-06
 Reference value :  2.51649e-06
 Reference value :  2.51879e-06
 Reference value :  2.52131e-06
 Reference value :  2.52556e-06
 Reference value :  2.53161e-06
 Reference value :  2.54135e-06
 Reference value :  2.56042e-06
 Reference value :  2.59024e-06
 Reference value :  2.64548e-06
 Reference value :  2.74009e-06
 Reference value :  2.75010e-06
 Reference value :  2.75011e-06
 Reference value :  2.75013e-06
 Reference value :  2.75017e-06
 Reference value :  2.75020e-06
 Reference value :  2.75020e-06
 Reference value :  2.75020e-06
 Reference value :  2.75020e-06
 Reference value :  2.75021e-06
 Reference value :  2.75022e-06
 Reference value :  2.75023e-06
 Reference value :  2.75027e-06
 Reference value :  2.75033e-06
 Reference value :  2.75047e-06
 Reference value :  2.75064e-06
 Reference value :  2.75091e-06
 Reference value :  2.75145e-06
 Reference value :  2.75210e-06
 Reference value :  2.75287e-06
 Reference value :  2.75358e-06
 Reference value :  2.75455e-06
 Reference value :  2.75549e-06
 Reference value :  2.75652e-06
 Reference value :  2.75754e-06
 Reference value :  2.75847e-06
 Reference value :  2.75954e-06
 Reference value :  2.76077e-06
 Reference value :  2.76322e-06
 Reference value :  2.76637e-06
 Reference value :  2.77092e-06
 Reference value :  2.77913e-06
 Reference value :  2.79351e-06
 Reference value :  2.81739e-06
 Reference value :  2.86515e-06
 Reference value :  2.96067e-06
 Reference value :  3.00000e-06
 Reference value :  3.00001e-06
 Reference value :  3.00003e-06
 Reference value :  3.00007e-06
 Reference value :  3.00010e-06
 Reference value :  3.00010e-06
 Reference value :  3.00010e-06
 Reference value :  3.00010e-06
 Reference value :  3.00011e-06
 Reference value :  3.00012e-06
 Reference value :  3.00013e-06
 Reference value :  3.00017e-06
 Reference value :  3.00023e-06
 Reference value :  3.00036e-06
 Reference value :  3.00055e-06
 Reference value :  3.00091e-06
 Reference value :  3.00141e-06
 Reference value :  3.00194e-06
 Reference value :  3.00269e-06
 Reference value :  3.00338e-06
 Reference value :  3.00409e-06
 Reference value :  3.00487e-06
 Reference value :  3.00574e-06
 Reference value :  3.00666e-06
 Reference value :  3.00763e-06
 Reference value :  3.00843e-06
 Reference value :  3.00935e-06
 Reference value :  3.01050e-06
 Reference value :  3.01173e-06
 Reference value :  3.01404e-06
 Reference value :  3.01621e-06
 Reference value :  3.01901e-06
 Reference value :  3.02130e-06
 Reference value :  3.02336e-06
 Reference value :  3.02481e-06
 Reference value :  3.02635e-06
 Reference value :  3.02794e-06
 Reference value :  3.02956e-06
 Reference value :  3.03143e-06
 Reference value :  3.03466e-06
 Reference value :  3.03764e-06
 Reference value :  3.04358e-06
 Reference value :  3.05269e-06
 Reference value :  3.06680e-06
 Reference value :  3.08746e-06
 Reference value :  3.12878e-06
 Reference value :  3.16226e-06
 Reference value :  3.19784e-06
 Reference value :  3.23557e-06
 Reference value :  3.25010e-06
 Reference value :  3.25011e-06
 Reference value :  3.25013e-06
 Reference value :  3.25017e-06
 Reference value :  3.25020e-06
 Reference value :  3.25020e-06
 Reference value :  3.25020e-06
 Reference value :  3.25020e-06
 Reference value :  3.25021e-06
 Reference value :  3.25022e-06
 Reference value :  3.25023e-06
 Reference value :  3.25027e-06
 Reference value :  3.25033e-06
 Reference value :  3.25047e-06
 Reference value :  3.25064e-06
 Reference value :  3.25091e-06
 Reference value :  3.25145e-06
 Reference value :  3.25210e-06
 Reference value :  3.25287e-06
 Reference value :  3.25358e-06
 Reference value :  3.25455e-06
 Reference value :  3.25561e-06
 Reference value :  3.25650e-06
 Reference value :  3.25747e-06
 Reference value :  3.25845e-06
 Reference value :  3.25980e-06
 Reference value :  3.26122e-06
 Reference value :  3.26386e-06
 Reference value :  3.26712e-06
 Reference value :  3.27229e-06
 Reference value :  3.28264e-06
 Reference value :  3.29855e-06
 Reference value :  3.33001e-06
 Reference value :  3.39295e-06
 Reference value :  3.50000e-06
 Reference value :  3.50001e-06
 Reference value :  3.50003e-06
 Reference value :  3.50007e-06
 Reference value :  3.50010e-06
 Reference value :  3.50010e-06
 Reference value :  3.50010e-06
 Reference value :  3.50010e-06
 Reference value :  3.50011e-06
 Reference value :  3.50012e-06
 Reference value :  3.50013e-06
 Reference value :  3.50017e-06
 Reference value :  3.50023e-06
 Reference value :  3.50036e-06
 Reference value :  3.50055e-06
 Reference value :  3.50091e-06
 Reference value :  3.50141e-06
 Reference value :  3.50194e-06
 Reference value :  3.50269e-06
 Reference value :  3.50337e-06
 Reference value :  3.50409e-06
 Reference value :  3.50490e-06
 Reference value :  3.50579e-06
 Reference value :  3.50679e-06
 Reference value :  3.50791e-06
 Reference value :  3.50964e-06
 Reference value :  3.51110e-06
 Reference value :  3.51275e-06
 Reference value :  3.51447e-06
 Reference value :  3.51626e-06
 Reference value :  3.51804e-06
 Reference value :  3.52065e-06
 Reference value :  3.52342e-06
 Reference value :  3.52835e-06
 Reference value :  3.53563e-06
 Reference value :  3.54783e-06
 Reference value :  3.56967e-06
 Reference value :  3.60636e-06
 Reference value :  3.67332e-06
 Reference value :  3.75010e-06
 Reference value :  3.75011e-06
 Reference value :  3.75013e-06
 Reference value :  3.75017e-06
 Reference value :  3.75020e-06
 Reference value :  3.75020e-06
 Reference value :  3.75020e-06
 Reference value :  3.75020e-06
 Reference value :  3.75021e-06
 Reference value :  3.75022e-06
 Reference value :  3.75023e-06
 Reference value :  3.75027e-06
 Reference value :  3.75033e-06
 Reference value :  3.75047e-06
 Reference value :  3.75064e-06
 Reference value :  3.75091e-06
 Reference value :  3.75145e-06
 Reference value :  3.75210e-06
 Reference value :  3.75288e-06
 Reference value :  3.75358e-06
 Reference value :  3.75454e-06
 Reference value :  3.75561e-06
 Reference value :  3.75651e-06
 Reference value :  3.75749e-06
 Reference value :  3.75842e-06
 Reference value :  3.75944e-06
 Reference value :  3.76062e-06
 Reference value :  3.76298e-06
 Reference value :  3.76610e-06
 Reference value :  3.77060e-06
 Reference value :  3.77848e-06
 Reference value :  3.79425e-06
 Reference value :  3.82426e-06
 Reference value :  3.88429e-06
 Reference value :  4.00000e-06
 Reference value :  4.00001e-06
 Reference value :  4.00003e-06
 Reference value :  4.00007e-06
 Reference value :  4.00010e-06
 Reference value :  4.00010e-06
 Reference value :  4.00010e-06
 Reference value :  4.00010e-06
 Reference value :  4.00011e-06
 Reference value :  4.00012e-06
 Reference value :  4.00013e-06
 Reference value :  4.00017e-06
 Reference value :  4.00023e-06
 Reference value :  4.00036e-06
 Reference value :  4.00055e-06
 Reference value :  4.00091e-06
 Reference value :  4.00141e-06
 Reference value :  4.00194e-06
 Reference value :  4.00269e-06
 Reference value :  4.00337e-06
 Reference value :  4.00409e-06
 Reference value :  4.00488e-06
 Reference value :  4.00575e-06
 Reference value :  4.00657e-06
 Reference value :  4.00743e-06
 Reference value :  4.00840e-06
 Reference value :  4.00935e-06
 Reference value :  4.01035e-06
 Reference value :  4.01180e-06
 Reference value :  4.01329e-06
 Reference value :  4.01576e-06
 Reference value :  4.01845e-06
 Reference value :  4.02085e-06
 Reference value :  4.02343e-06
 Reference value :  4.02534e-06
 Reference value :  4.02717e-06
 Reference value :  4.02881e-06
 Reference value :  4.03057e-06
 Reference value :  4.03267e-06
 Reference value :  4.03526e-06
 Reference value :  4.03843e-06
 Reference value :  4.04351e-06
 Reference value :  4.05063e-06
 Reference value :  4.05842e-06
 Reference value :  4.06586e-06
 Reference value :  4.07273e-06
 Reference value :  4.07808e-06
 Reference value :  4.08295e-06
 Reference value :  4.08803e-06
 Reference value :  4.09395e-06
 Reference value :  4.10259e-06
 Reference value :  4.10955e-06
 Reference value :  4.11744e-06
 Reference value :  4.12767e-06
 Reference value :  4.14348e-06
 Reference value :  4.16747e-06
 Reference value :  4.20303e-06
 Reference value :  4.25010e-06
 Reference value :  4.25011e-06
 Reference value :  4.25013e-06
 Reference value :  4.25017e-06
 Reference value :  4.25020e-06
 Reference value :  4.25020e-06
 Reference value :  4.25020e-06
 Reference value :  4.25020e-06
 Reference value :  4.25021e-06
 Reference value :  4.25022e-06
 Reference value :  4.25023e-06
 Reference value :  4.25027e-06
 Reference value :  4.25033e-06
 Reference value :  4.25042e-06
 Reference value :  4.25058e-06
 Reference value :  4.25077e-06
 Reference value :  4.25109e-06
 Reference value :  4.25172e-06
 Reference value :  4.25234e-06
 Reference value :  4.25304e-06
 Reference value :  4.25378e-06
 Reference value :  4.25472e-06
 Reference value :  4.25551e-06
 Reference value :  4.25641e-06
 Reference value :  4.25730e-06
 Reference value :  4.25824e-06
 Reference value :  4.25980e-06
 Reference value :  4.26135e-06
 Reference value :  4.26397e-06
 Reference value :  4.26726e-06
 Reference value :  4.27241e-06
 Reference value :  4.28271e-06
 Reference value :  4.30331e-06
 Reference value :  4.34451e-06
 Reference value :  4.42684e-06
 Reference value :  4.50000e-06
 Reference value :  4.50001e-06
 Reference value :  4.50003e-06
 Reference value :  4.50007e-06
 Reference value :  4.50010e-06
 Reference value :  4.50010e-06
 Reference value :  4.50010e-06
 Reference value :  4.50010e-06
 Reference value :  4.50011e-06
 Reference value :  4.50012e-06
 Reference value :  4.50013e-06
 Reference value :  4.50017e-06
 Reference value :  4.50023e-06
 Reference value :  4.50036e-06
 Reference value :  4.50062e-06
 Reference value :  4.50109e-06
 Reference value :  4.50174e-06
 Reference value :  4.50246e-06
 Reference value :  4.50308e-06
 Reference value :  4.50385e-06
 Reference value :  4.50481e-06
 Reference value :  4.50576e-06
 Reference value :  4.50670e-06
 Reference value :  4.50793e-06
 Reference value :  4.50934e-06
 Reference value :  4.51104e-06
 Reference value :  4.51237e-06
 Reference value :  4.51382e-06
 Reference value :  4.51525e-06
 Reference value :  4.51694e-06
 Reference value :  4.51874e-06
 Reference value :  4.52202e-06
 Reference value :  4.52678e-06
 Reference value :  4.53568e-06
 Reference value :  4.55251e-06
 Reference value :  4.58206e-06
 Reference value :  4.64117e-06
 Reference value :  4.75010e-06
 Reference value :  4.75011e-06
 Reference value :  4.75013e-06
 Reference value :  4.75017e-06
 Reference value :  4.75020e-06
 Reference value :  4.75020e-06
 Reference value :  4.75020e-06
 Reference value :  4.75020e-06
 Reference value :  4.75021e-06
 Reference value :  4.75022e-06
 Reference value :  4.75023e-06
 Reference value :  4.75027e-06
 Reference value :  4.75033e-06
 Reference value :  4.75042e-06
 Reference value :  4.75058e-06
 Reference value :  4.75077e-06
 Reference value :  4.75108e-06
 Reference value :  4.75171e-06
 Reference value :  4.75233e-06
 Reference value :  4.75303e-06
 Reference value :  4.75377e-06
 Reference value :  4.75471e-06
 Reference value :  4.75554e-06
 Reference value :  4.75647e-06
 Reference value :  4.75729e-06
 Reference value :  4.75818e-06
 Reference value :  4.75921e-06
 Reference value :  4.76034e-06
 Reference value :  4.76176e-06
 Reference value :  4.76324e-06
 Reference value :  4.76561e-06
 Reference value :  4.76813e-06
 Reference value :  4.77190e-06
 Reference value :  4.77708e-06
 Reference value :  4.78746e-06
 Reference value :  4.80820e-06
 Reference value :  4.84970e-06
 Reference value :  4.93268e-06
 Reference value :  5.00000e-06
 Reference value :  5.00001e-06
 Reference value :  5.00003e-06
 Reference value :  5.00007e-06
 Reference value :  5.00010e-06
 Reference value :  5.00010e-06
 Reference value :  5.00010e-06
 Reference value :  5.00010e-06
 Reference value :  5.00011e-06
 Reference value :  5.00012e-06
 Reference value :  5.00013e-06
 Reference value :  5.00017e-06
 Reference value :  5.00023e-06
 Reference value :  5.00036e-06
 Reference value :  5.00062e-06
 Reference value :  5.00109e-06
 Reference value :  5.00174e-06
 Reference value :  5.00246e-06
 Reference value :  5.00309e-06
 Reference value :  5.00386e-06
 Reference value :  5.00471e-06
 Reference value :  5.00560e-06
 Reference value :  5.00637e-06
 Reference value :  5.00718e-06
 Reference value :  5.00789e-06
 Reference value :  5.00869e-06
 Reference value :  5.00966e-06
 Reference value :  5.01075e-06
 Reference value :  5.01294e-06
 Reference value :  5.01511e-06
 Reference value :  5.01737e-06
 Reference value :  5.01946e-06
 Reference value :  5.02159e-06
 Reference value :  5.02392e-06
 Reference value :  5.02612e-06
 Reference value :  5.02781e-06
 Reference value :  5.02940e-06
 Reference value :  5.03094e-06
 Reference value :  5.03255e-06
 Reference value :  5.03441e-06
 Reference value :  5.03723e-06
 Reference value :  5.04018e-06
 Reference value :  5.04243e-06
 Reference value :  5.04462e-06
 Reference value :  5.04667e-06
 Reference value :  5.04894e-06
 Reference value :  5.05164e-06
 Reference value :  5.05552e-06
 Reference value :  5.06071e-06
 Reference value :  5.06886e-06
 Reference value :  5.08089e-06
 Reference value :  5.10075e-06
 Reference value :  5.12278e-06
 Reference value :  5.15971e-06
 Reference value :  5.21348e-06
 Reference value :  5.25010e-06
 Reference value :  5.25011e-06
 Reference value :  5.25013e-06
 Reference value :  5.25017e-06
 Reference value :  5.25020e-06
 Reference value :  5.25020e-06
 Reference value :  5.25020e-06
 Reference value :  5.25020e-06
 Reference value :  5.25021e-06
 Reference value :  5.25022e-06
 Reference value :  5.25023e-06
 Reference value :  5.25027e-06
 Reference value :  5.25033e-06
 Reference value :  5.25042e-06
 Reference value :  5.25058e-06
 Reference value :  5.25076e-06
 Reference value :  5.25108e-06
 Reference value :  5.25172e-06
 Reference value :  5.25234e-06
 Reference value :  5.25305e-06
 Reference value :  5.25378e-06
 Reference value :  5.25473e-06
 Reference value :  5.25576e-06
 Reference value :  5.25652e-06
 Reference value :  5.25740e-06
 Reference value :  5.25838e-06
 Reference value :  5.25951e-06
 Reference value :  5.26072e-06
 Reference value :  5.26314e-06
 Reference value :  5.26626e-06
 Reference value :  5.27079e-06
 Reference value :  5.27951e-06
 Reference value :  5.29693e-06
 Reference value :  5.33178e-06
 Reference value :  5.40147e-06
 Reference value :  5.50000e-06
 Reference value :  5.50001e-06
 Reference value :  5.50003e-06
 Reference value :  5.50007e-06
 Reference value :  5.50010e-06
 Reference value :  5.50010e-06
 Reference value :  5.50010e-06
 Reference value :  5.50010e-06
 Reference value :  5.50011e-06
 Reference value :  5.50012e-06
 Reference value :  5.50013e-06
 Reference value :  5.50017e-06
 Reference value :  5.50023e-06
 Reference value :  5.50036e-06
 Reference value :  5.50062e-06
 Reference value :  5.50109e-06
 Reference value :  5.50174e-06
 Reference value :  5.50246e-06
 Reference value :  5.50308e-06
 Reference value :  5.50385e-06
 Reference value :  5.50481e-06
 Reference value :  5.50576e-06
 Reference value :  5.50670e-06
 Reference value :  5.50780e-06
 Reference value :  5.50917e-06
 Reference value :  5.51076e-06
 Reference value :  5.51223e-06
 Reference value :  5.51357e-06
 Reference value :  5.51505e-06
 Reference value :  5.51670e-06
 Reference value :  5.51841e-06
 Reference value :  5.52182e-06
 Reference value :  5.52673e-06
 Reference value :  5.53654e-06
 Reference value :  5.55453e-06
 Reference value :  5.58738e-06
 Reference value :  5.65226e-06
 Reference value :  5.75010e-06
 Reference value :  5.75011e-06
 Reference value :  5.75013e-06
 Reference value :  5.75017e-06
 Reference value :  5.75020e-06
 Reference value :  5.75020e-06
 Reference value :  5.75020e-06
 Reference value :  5.75020e-06
 Reference value :  5.75021e-06
 Reference value :  5.75022e-06
 Reference value :  5.75023e-06
 Reference value :  5.75027e-06
 Reference value :  5.75033e-06
 Reference value :  5.75041e-06
 Reference value :  5.75058e-06
 Reference value :  5.75077e-06
 Reference value :  5.75108e-06
 Reference value :  5.75170e-06
 Reference value :  5.75233e-06
 Reference value :  5.75303e-06
 Reference value :  5.75376e-06
 Reference value :  5.75470e-06
 Reference value :  5.75573e-06
 Reference value :  5.75649e-06
 Reference value :  5.75737e-06
 Reference value :  5.75836e-06
 Reference value :  5.75928e-06
 Reference value :  5.76083e-06
 Reference value :  5.76226e-06
 Reference value :  5.76513e-06
 Reference value :  5.76896e-06
 Reference value :  5.77661e-06
 Reference value :  5.79192e-06
 Reference value :  5.82254e-06
 Reference value :  5.88377e-06
 Reference value :  6.00000e-06
 Reference value :  6.00001e-06
 Reference value :  6.00003e-06
 Reference value :  6.00007e-06
 Reference value :  6.00010e-06
 Reference value :  6.00010e-06
 Reference value :  6.00010e-06
 Reference value :  6.00010e-06
 Reference value :  6.00011e-06
 Reference value :  6.00012e-06
 Reference value :  6.00013e-06
 Reference value :  6.00017e-06
 Reference value :  6.00023e-06
 Reference value :  6.00036e-06
 Reference value :  6.00062e-06
 Reference value :  6.00109e-06
 Reference value :  6.00174e-06
 Reference value :  6.00246e-06
 Reference value :  6.00309e-06
 Reference value :  6.00385e-06
 Reference value :  6.00482e-06
 Reference value :  6.00571e-06
 Reference value :  6.00666e-06
 Reference value :  6.00758e-06
 Reference value :  6.00857e-06
 Reference value :  6.00958e-06
 Reference value :  6.01081e-06
 Reference value :  6.01258e-06
 Reference value :  6.01489e-06
 Reference value :  6.01893e-06
 Reference value :  6.02379e-06
 Reference value :  6.02715e-06
 Reference value :  6.02999e-06
 Reference value :  6.03269e-06
 Reference value :  6.03545e-06
 Reference value :  6.03831e-06
 Reference value :  6.04154e-06
 Reference value :  6.04494e-06
 Reference value :  6.05070e-06
 Reference value :  6.05706e-06
 Reference value :  6.06695e-06
 Reference value :  6.07623e-06
 Reference value :  6.08725e-06
 Reference value :  6.09469e-06
 Reference value :  6.10203e-06
 Reference value :  6.11165e-06
 Reference value :  6.12126e-06
 Reference value :  6.13560e-06
 Reference value :  6.15046e-06
 Reference value :  6.16645e-06
 Reference value :  6.18652e-06
 Reference value :  6.22219e-06
 Reference value :  6.25010e-06
 Reference value :  6.25011e-06
 Reference value :  6.25013e-06
 Reference value :  6.25017e-06
 Reference value :  6.25020e-06
 Reference value :  6.25020e-06
 Reference value :  6.25020e-06
 Reference value :  6.25020e-06
 Reference value :  6.25021e-06
 Reference value :  6.25022e-06
 Reference value :  6.25023e-06
 Reference value :  6.25027e-06
 Reference value :  6.25033e-06
 Reference value :  6.25041e-06
 Reference value :  6.25058e-06
 Reference value :  6.25076e-06
 Reference value :  6.25106e-06
 Reference value :  6.25165e-06
 Reference value :  6.25228e-06
 Reference value :  6.25298e-06
 Reference value :  6.25371e-06
 Reference value :  6.25463e-06
 Reference value :  6.25565e-06
 Reference value :  6.25691e-06
 Reference value :  6.25800e-06
 Reference value :  6.25912e-06
 Reference value :  6.26036e-06
 Reference value :  6.26213e-06
 Reference value :  6.26425e-06
 Reference value :  6.26805e-06
 Reference value :  6.27408e-06
 Reference value :  6.28467e-06
 Reference value :  6.30453e-06
 Reference value :  6.34426e-06
 Reference value :  6.42372e-06
 Reference value :  6.50000e-06
 Reference value :  6.50001e-06
 Reference value :  6.50003e-06
 Reference value :  6.50007e-06
 Reference value :  6.50010e-06
 Reference value :  6.50010e-06
 Reference value :  6.50010e-06
 Reference value :  6.50010e-06
 Reference value :  6.50011e-06
 Reference value :  6.50012e-06
 Reference value :  6.50013e-06
 Reference value :  6.50017e-06
 Reference value :  6.50023e-06
 Reference value :  6.50036e-06
 Reference value :  6.50062e-06
 Reference value :  6.50109e-06
 Reference value :  6.50174e-06
 Reference value :  6.50246e-06
 Reference value :  6.50308e-06
 Reference value :  6.50385e-06
 Reference value :  6.50480e-06
 Reference value :  6.50576e-06
 Reference value :  6.50669e-06
 Reference value :  6.50782e-06
 Reference value :  6.50898e-06
 Reference value :  6.51101e-06
 Reference value :  6.51288e-06
 Reference value :  6.51450e-06
 Reference value :  6.51623e-06
 Reference value :  6.51862e-06
 Reference value :  6.52091e-06
 Reference value :  6.52511e-06
 Reference value :  6.53081e-06
 Reference value :  6.54032e-06
 Reference value :  6.55603e-06
 Reference value :  6.58384e-06
 Reference value :  6.63207e-06
 Reference value :  6.72068e-06
 Reference value :  6.75010e-06
 Reference value :  6.75011e-06
 Reference value :  6.75013e-06
 Reference value :  6.75017e-06
 Reference value :  6.75020e-06
 Reference value :  6.75020e-06
 Reference value :  6.75020e-06
 Reference value :  6.75020e-06
 Reference value :  6.75021e-06
 Reference value :  6.75022e-06
 Reference value :  6.75023e-06
 Reference value :  6.75027e-06
 Reference value :  6.75033e-06
 Reference value :  6.75041e-06
 Reference value :  6.75058e-06
 Reference value :  6.75080e-06
 Reference value :  6.75107e-06
 Reference value :  6.75163e-06
 Reference value :  6.75225e-06
 Reference value :  6.75292e-06
 Reference value :  6.75365e-06
 Reference value :  6.75457e-06
 Reference value :  6.75558e-06
 Reference value :  6.75681e-06
 Reference value :  6.75778e-06
 Reference value :  6.75883e-06
 Reference value :  6.75987e-06
 Reference value :  6.76097e-06
 Reference value :  6.76218e-06
 Reference value :  6.76355e-06
 Reference value :  6.76503e-06
 Reference value :  6.76752e-06
 Reference value :  6.77019e-06
 Reference value :  6.77437e-06
 Reference value :  6.78089e-06
 Reference value :  6.79393e-06
 Reference value :  6.81482e-06
 Reference value :  6.85659e-06
 Reference value :  6.94013e-06
 Reference value :  7.00000e-06
 Reference value :  7.00001e-06
 Reference value :  7.00003e-06
 Reference value :  7.00007e-06
 Reference value :  7.00010e-06
 Reference value :  7.00010e-06
 Reference value :  7.00010e-06
 Reference value :  7.00010e-06
 Reference value :  7.00011e-06
 Reference value :  7.00012e-06
 Reference value :  7.00013e-06
 Reference value :  7.00017e-06
 Reference value :  7.00023e-06
 Reference value :  7.00036e-06
 Reference value :  7.00062e-06
 Reference value :  7.00109e-06
 Reference value :  7.00174e-06
 Reference value :  7.00246e-06
 Reference value :  7.00308e-06
 Reference value :  7.00385e-06
 Reference value :  7.00481e-06
 Reference value :  7.00571e-06
 Reference value :  7.00665e-06
 Reference value :  7.00738e-06
 Reference value :  7.00823e-06
 Reference value :  7.00909e-06
 Reference value :  7.00995e-06
 Reference value :  7.01104e-06
 Reference value :  7.01222e-06
 Reference value :  7.01456e-06
 Reference value :  7.01757e-06
 Reference value :  7.01961e-06
 Reference value :  7.02192e-06
 Reference value :  7.02399e-06
 Reference value :  7.02620e-06
 Reference value :  7.02807e-06
 Reference value :  7.02995e-06
 Reference value :  7.03164e-06
 Reference value :  7.03342e-06
 Reference value :  7.03559e-06
 Reference value :  7.03724e-06
 Reference value :  7.03904e-06
 Reference value :  7.04160e-06
 Reference value :  7.04416e-06
 Reference value :  7.04842e-06
 Reference value :  7.05352e-06
 Reference value :  7.06244e-06
 Reference value :  7.07708e-06
 Reference value :  7.09993e-06
 Reference value :  7.14056e-06
 Reference value :  7.21923e-06
 Reference value :  7.25010e-06
 Reference value :  7.25011e-06
 Reference value :  7.25013e-06
 Reference value :  7.25017e-06
 Reference value :  7.25020e-06
 Reference value :  7.25020e-06
 Reference value :  7.25020e-06
 Reference value :  7.25020e-06
 Reference value :  7.25021e-06
 Reference value :  7.25022e-06
 Reference value :  7.25023e-06
 Reference value :  7.25027e-06
 Reference value :  7.25033e-06
 Reference value :  7.25042e-06
 Reference value :  7.25059e-06
 Reference value :  7.25077e-06
 Reference value :  7.25107e-06
 Reference value :  7.25167e-06
 Reference value :  7.25229e-06
 Reference value :  7.25299e-06
 Reference value :  7.25372e-06
 Reference value :  7.25465e-06
 Reference value :  7.25566e-06
 Reference value :  7.25662e-06
 Reference value :  7.25771e-06
 Reference value :  7.25883e-06
 Reference value :  7.25994e-06
 Reference value :  7.26171e-06
 Reference value :  7.26366e-06
 Reference value :  7.26734e-06
 Reference value :  7.27237e-06
 Reference value :  7.28245e-06
 Reference value :  7.30097e-06
 Reference value :  7.33608e-06
 Reference value :  7.40632e-06
 Reference value :  7.50000e-06
 Reference value :  7.50001e-06
 Reference value :  7.50003e-06
 Reference value :  7.50007e-06
 Reference value :  7.50010e-06
 Reference value :  7.50010e-06
 Reference value :  7.50010e-06
 Reference value :  7.50010e-06
 Reference value :  7.50011e-06
 Reference value :  7.50012e-06
 Reference value :  7.50013e-06
 Reference value :  7.50017e-06
 Reference value :  7.50023e-06
 Reference value :  7.50036e-06
 Reference value :  7.50062e-06
 Reference value :  7.50109e-06
 Reference value :  7.50171e-06
 Reference value :  7.50245e-06
 Reference value :  7.50308e-06
 Reference value :  7.50385e-06
 Reference value :  7.50479e-06
 Reference value :  7.50576e-06
 Reference value :  7.50668e-06
 Reference value :  7.50785e-06
 Reference value :  7.50906e-06
 Reference value :  7.51093e-06
 Reference value :  7.51293e-06
 Reference value :  7.51465e-06
 Reference value :  7.51645e-06
 Reference value :  7.51876e-06
 Reference value :  7.52119e-06
 Reference value :  7.52528e-06
 Reference value :  7.53096e-06
 Reference value :  7.54041e-06
 Reference value :  7.55661e-06
 Reference value :  7.58282e-06
 Reference value :  7.63093e-06
 Reference value :  7.71736e-06
 Reference value :  7.75010e-06
 Reference value :  7.75011e-06
 Reference value :  7.75013e-06
 Reference value :  7.75017e-06
 Reference value :  7.75020e-06
 Reference value :  7.75020e-06
 Reference value :  7.75020e-06
 Reference value :  7.75020e-06
 Reference value :  7.75021e-06
 Reference value :  7.75022e-06
 Reference value :  7.75023e-06
 Reference value :  7.75027e-06
 Reference value :  7.75033e-06
 Reference value :  7.75042e-06
 Reference value :  7.75059e-06
 Reference value :  7.75082e-06
 Reference value :  7.75109e-06
 Reference value :  7.75165e-06
 Reference value :  7.75226e-06
 Reference value :  7.75292e-06
 Reference value :  7.75365e-06
 Reference value :  7.75457e-06
 Reference value :  7.75558e-06
 Reference value :  7.75658e-06
 Reference value :  7.75763e-06
 Reference value :  7.75858e-06
 Reference value :  7.75957e-06
 Reference value :  7.76064e-06
 Reference value :  7.76189e-06
 Reference value :  7.76437e-06
 Reference value :  7.76854e-06
 Reference value :  7.77498e-06
 Reference value :  7.78786e-06
 Reference value :  7.81362e-06
 Reference value :  7.86514e-06
 Reference value :  7.96817e-06
 Reference value :  8.00000e-06
 Reference value :  8.00001e-06
 Reference value :  8.00003e-06
 Reference value :  8.00007e-06
 Reference value :  8.00010e-06
 Reference value :  8.00010e-06
 Reference value :  8.00010e-06
 Reference value :  8.00010e-06
 Reference value :  8.00011e-06
 Reference value :  8.00012e-06
 Reference value :  8.00013e-06
 Reference value :  8.00017e-06
 Reference value :  8.00023e-06
 Reference value :  8.00036e-06
 Reference value :  8.00062e-06
 Reference value :  8.00109e-06
 Reference value :  8.00171e-06
 Reference value :  8.00245e-06
 Reference value :  8.00308e-06
 Reference value :  8.00385e-06
 Reference value :  8.00482e-06
 Reference value :  8.00575e-06
 Reference value :  8.00670e-06
 Reference value :  8.00756e-06
 Reference value :  8.00851e-06
 Reference value :  8.00954e-06
 Reference value :  8.01070e-06
 Reference value :  8.01243e-06
 Reference value :  8.01396e-06
 Reference value :  8.01557e-06
 Reference value :  8.01723e-06
 Reference value :  8.01905e-06
 Reference value :  8.02267e-06
 Reference value :  8.02810e-06
 Reference value :  8.03698e-06
 Reference value :  8.05472e-06
 Reference value :  8.09020e-06
 Reference value :  8.16117e-06
 Reference value :  8.25010e-06
 Reference value :  8.25011e-06
 Reference value :  8.25013e-06
 Reference value :  8.25017e-06
 Reference value :  8.25020e-06
 Reference value :  8.25020e-06
 Reference value :  8.25020e-06
 Reference value :  8.25020e-06
 Reference value :  8.25021e-06
 Reference value :  8.25022e-06
 Reference value :  8.25023e-06
 Reference value :  8.25027e-06
 Reference value :  8.25033e-06
 Reference value :  8.25047e-06
 Reference value :  8.25064e-06
 Reference value :  8.25085e-06
 Reference value :  8.25127e-06
 Reference value :  8.25193e-06
 Reference value :  8.25261e-06
 Reference value :  8.25331e-06
 Reference value :  8.25422e-06
 Reference value :  8.25545e-06
 Reference value :  8.25660e-06
 Reference value :  8.25789e-06
 Reference value :  8.25953e-06
 Reference value :  8.26158e-06
 Reference value :  8.26424e-06
 Reference value :  8.26765e-06
 Reference value :  8.27257e-06
 Reference value :  8.28243e-06
 Reference value :  8.29636e-06
 Reference value :  8.32421e-06
 Reference value :  8.37992e-06
 Reference value :  8.48510e-06
 Reference value :  8.50000e-06
No. of Data Rows : 1393
ngspice-44 done
