
Note: Compatibility modes selected: hs a


Circuit: ** sch_path: /home/ece/cace/sar-adc-using-sky130-pdk/runs/run_2025-09-09_04-40-29/parameters/sampling_rate/run_04/sampling_rate.sch

option SCALE: Scale is set to 1e-06 for instance and model parameters
option SCALE: Scale is set to 1e-06 for instance and model parameters
option SCALE: Scale is set to 1e-06 for instance and model parameters
option SCALE: Scale is set to 1e-06 for instance and model parameters
Doing analysis at TEMP = 27.000000 and TNOM = 27.000000

Using KLU as Direct Linear Solver
Operating point simulation skipped by 'uic',
  now using transient initial conditions.
 Reference value :  1.00000e-12
 Reference value :  1.02772e-12
 Reference value :  1.08316e-12
 Reference value :  1.19404e-12
 Reference value :  1.33846e-12
 Reference value :  2.20497e-12
 Reference value :  3.96167e-12
 Reference value :  5.17484e-12
 Reference value :  6.89056e-12
 Reference value :  1.02468e-11
 Reference value :  1.40854e-11
 Reference value :  2.08996e-11
 Reference value :  3.67549e-11
 Reference value :  4.80792e-11
 Reference value :  6.53409e-11
 Reference value :  8.53453e-11
 Reference value :  1.00000e-10
 Reference value :  1.01238e-10
 Reference value :  1.03715e-10
 Reference value :  1.08669e-10
 Reference value :  1.18576e-10
 Reference value :  1.38390e-10
 Reference value :  1.78018e-10
 Reference value :  2.57274e-10
 Reference value :  4.09083e-10
 Reference value :  5.73341e-10
 Reference value :  8.40839e-10
 Reference value :  1.18771e-09
 Reference value :  2.26364e-09
 Reference value :  3.06992e-09
 Reference value :  3.90123e-09
 Reference value :  4.55982e-09
 Reference value :  5.33596e-09
 Reference value :  6.23813e-09
 Reference value :  8.55668e-09
 Reference value :  1.00210e-08
 Reference value :  1.10014e-08
 Reference value :  1.19288e-08
 Reference value :  1.29134e-08
 Reference value :  1.40048e-08
 Reference value :  1.60321e-08
 Reference value :  1.86531e-08
 Reference value :  2.21981e-08
 Reference value :  2.58184e-08
 Reference value :  2.88140e-08
 Reference value :  3.20910e-08
 Reference value :  3.53933e-08
 Reference value :  3.88343e-08
 Reference value :  4.36779e-08
 Reference value :  5.22542e-08
 Reference value :  6.71297e-08
 Reference value :  9.68808e-08
 Reference value :  1.32209e-07
 Reference value :  1.79561e-07
 Reference value :  2.06187e-07
 Reference value :  2.35972e-07
 Reference value :  2.50100e-07
 Reference value :  2.50110e-07
 Reference value :  2.50130e-07
 Reference value :  2.50170e-07
 Reference value :  2.50200e-07
 Reference value :  2.50201e-07
 Reference value :  2.50204e-07
 Reference value :  2.50208e-07
 Reference value :  2.50216e-07
 Reference value :  2.50233e-07
 Reference value :  2.50266e-07
 Reference value :  2.50332e-07
 Reference value :  2.50409e-07
 Reference value :  2.50564e-07
 Reference value :  2.50711e-07
 Reference value :  2.51005e-07
 Reference value :  2.51335e-07
 Reference value :  2.51817e-07
 Reference value :  2.52369e-07
 Reference value :  2.52973e-07
 Reference value :  2.53864e-07
 Reference value :  2.54616e-07
 Reference value :  2.55425e-07
 Reference value :  2.56214e-07
 Reference value :  2.57069e-07
 Reference value :  2.57896e-07
 Reference value :  2.59395e-07
 Reference value :  2.61438e-07
 Reference value :  2.63591e-07
 Reference value :  2.67011e-07
 Reference value :  2.71801e-07
 Reference value :  2.81383e-07
 Reference value :  3.00547e-07
 Reference value :  3.36399e-07
 Reference value :  4.08102e-07
 Reference value :  5.00000e-07
 Reference value :  5.00010e-07
 Reference value :  5.00030e-07
 Reference value :  5.00070e-07
 Reference value :  5.00100e-07
 Reference value :  5.00104e-07
 Reference value :  5.00130e-07
 Reference value :  5.00163e-07
 Reference value :  5.00231e-07
 Reference value :  5.00366e-07
 Reference value :  5.00553e-07
 Reference value :  5.00927e-07
 Reference value :  5.01510e-07
 Reference value :  5.02042e-07
 Reference value :  5.02618e-07
 Reference value :  5.03246e-07
 Reference value :  5.04059e-07
 Reference value :  5.04791e-07
 Reference value :  5.05614e-07
 Reference value :  5.06653e-07
 Reference value :  5.07722e-07
 Reference value :  5.09649e-07
 Reference value :  5.12141e-07
 Reference value :  5.13891e-07
 Reference value :  5.15918e-07
 Reference value :  5.18211e-07
 Reference value :  5.20533e-07
 Reference value :  5.23146e-07
 Reference value :  5.27753e-07
 Reference value :  5.34272e-07
 Reference value :  5.44458e-07
 Reference value :  5.64674e-07
 Reference value :  5.96349e-07
 Reference value :  6.57169e-07
 Reference value :  7.50100e-07
 Reference value :  7.50110e-07
 Reference value :  7.50130e-07
 Reference value :  7.50170e-07
 Reference value :  7.50200e-07
 Reference value :  7.50201e-07
 Reference value :  7.50205e-07
 Reference value :  7.50211e-07
 Reference value :  7.50223e-07
 Reference value :  7.50247e-07
 Reference value :  7.50295e-07
 Reference value :  7.50390e-07
 Reference value :  7.50580e-07
 Reference value :  7.50954e-07
 Reference value :  7.51429e-07
 Reference value :  7.51992e-07
 Reference value :  7.52594e-07
 Reference value :  7.53250e-07
 Reference value :  7.54105e-07
 Reference value :  7.54726e-07
 Reference value :  7.55454e-07
 Reference value :  7.56124e-07
 Reference value :  7.56857e-07
 Reference value :  7.57770e-07
 Reference value :  7.58766e-07
 Reference value :  7.59797e-07
 Reference value :  7.61313e-07
 Reference value :  7.62882e-07
 Reference value :  7.65189e-07
 Reference value :  7.67902e-07
 Reference value :  7.72090e-07
 Reference value :  7.80466e-07
 Reference value :  7.92921e-07
 Reference value :  8.17831e-07
 Reference value :  8.67652e-07
 Reference value :  9.67293e-07
 Reference value :  1.00000e-06
 Reference value :  1.00001e-06
 Reference value :  1.00003e-06
 Reference value :  1.00007e-06
 Reference value :  1.00010e-06
 Reference value :  1.00010e-06
 Reference value :  1.00011e-06
 Reference value :  1.00013e-06
 Reference value :  1.00016e-06
 Reference value :  1.00023e-06
 Reference value :  1.00037e-06
 Reference value :  1.00055e-06
 Reference value :  1.00093e-06
 Reference value :  1.00151e-06
 Reference value :  1.00204e-06
 Reference value :  1.00261e-06
 Reference value :  1.00329e-06
 Reference value :  1.00407e-06
 Reference value :  1.00484e-06
 Reference value :  1.00553e-06
 Reference value :  1.00624e-06
 Reference value :  1.00696e-06
 Reference value :  1.00774e-06
 Reference value :  1.00853e-06
 Reference value :  1.00963e-06
 Reference value :  1.01103e-06
 Reference value :  1.01321e-06
 Reference value :  1.01469e-06
 Reference value :  1.01633e-06
 Reference value :  1.01798e-06
 Reference value :  1.01944e-06
 Reference value :  1.02059e-06
 Reference value :  1.02182e-06
 Reference value :  1.02322e-06
 Reference value :  1.02478e-06
 Reference value :  1.02639e-06
 Reference value :  1.02900e-06
 Reference value :  1.03200e-06
 Reference value :  1.03800e-06
 Reference value :  1.04805e-06
 Reference value :  1.06485e-06
 Reference value :  1.14788e-06
 Reference value :  1.21052e-06
 Reference value :  1.25010e-06
 Reference value :  1.25011e-06
 Reference value :  1.25013e-06
 Reference value :  1.25017e-06
 Reference value :  1.25020e-06
 Reference value :  1.25020e-06
 Reference value :  1.25020e-06
 Reference value :  1.25021e-06
 Reference value :  1.25021e-06
 Reference value :  1.25022e-06
 Reference value :  1.25025e-06
 Reference value :  1.25029e-06
 Reference value :  1.25039e-06
 Reference value :  1.25057e-06
 Reference value :  1.25090e-06
 Reference value :  1.25140e-06
 Reference value :  1.25202e-06
 Reference value :  1.25261e-06
 Reference value :  1.25328e-06
 Reference value :  1.25410e-06
 Reference value :  1.25470e-06
 Reference value :  1.25539e-06
 Reference value :  1.25628e-06
 Reference value :  1.25712e-06
 Reference value :  1.25824e-06
 Reference value :  1.26017e-06
 Reference value :  1.26209e-06
 Reference value :  1.26518e-06
 Reference value :  1.26905e-06
 Reference value :  1.27680e-06
 Reference value :  1.29229e-06
 Reference value :  1.32328e-06
 Reference value :  1.38526e-06
 Reference value :  1.48166e-06
 Reference value :  1.50000e-06
 Reference value :  1.50001e-06
 Reference value :  1.50003e-06
 Reference value :  1.50007e-06
 Reference value :  1.50010e-06
 Reference value :  1.50010e-06
 Reference value :  1.50011e-06
 Reference value :  1.50013e-06
 Reference value :  1.50016e-06
 Reference value :  1.50023e-06
 Reference value :  1.50036e-06
 Reference value :  1.50054e-06
 Reference value :  1.50089e-06
 Reference value :  1.50139e-06
 Reference value :  1.50190e-06
 Reference value :  1.50240e-06
 Reference value :  1.50303e-06
 Reference value :  1.50367e-06
 Reference value :  1.50454e-06
 Reference value :  1.50535e-06
 Reference value :  1.50630e-06
 Reference value :  1.50761e-06
 Reference value :  1.50906e-06
 Reference value :  1.51045e-06
 Reference value :  1.51188e-06
 Reference value :  1.51319e-06
 Reference value :  1.51462e-06
 Reference value :  1.51603e-06
 Reference value :  1.51768e-06
 Reference value :  1.52097e-06
 Reference value :  1.52622e-06
 Reference value :  1.53671e-06
 Reference value :  1.55770e-06
 Reference value :  1.59968e-06
 Reference value :  1.68364e-06
 Reference value :  1.75010e-06
 Reference value :  1.75011e-06
 Reference value :  1.75013e-06
 Reference value :  1.75017e-06
 Reference value :  1.75020e-06
 Reference value :  1.75020e-06
 Reference value :  1.75020e-06
 Reference value :  1.75021e-06
 Reference value :  1.75021e-06
 Reference value :  1.75022e-06
 Reference value :  1.75025e-06
 Reference value :  1.75029e-06
 Reference value :  1.75039e-06
 Reference value :  1.75058e-06
 Reference value :  1.75091e-06
 Reference value :  1.75141e-06
 Reference value :  1.75204e-06
 Reference value :  1.75262e-06
 Reference value :  1.75330e-06
 Reference value :  1.75415e-06
 Reference value :  1.75475e-06
 Reference value :  1.75545e-06
 Reference value :  1.75615e-06
 Reference value :  1.75688e-06
 Reference value :  1.75783e-06
 Reference value :  1.75886e-06
 Reference value :  1.76004e-06
 Reference value :  1.76145e-06
 Reference value :  1.76351e-06
 Reference value :  1.76556e-06
 Reference value :  1.76910e-06
 Reference value :  1.77357e-06
 Reference value :  1.78252e-06
 Reference value :  1.80041e-06
 Reference value :  1.83619e-06
 Reference value :  1.90774e-06
 Reference value :  2.00000e-06
 Reference value :  2.00001e-06
 Reference value :  2.00003e-06
 Reference value :  2.00007e-06
 Reference value :  2.00010e-06
 Reference value :  2.00010e-06
 Reference value :  2.00011e-06
 Reference value :  2.00013e-06
 Reference value :  2.00016e-06
 Reference value :  2.00023e-06
 Reference value :  2.00036e-06
 Reference value :  2.00054e-06
 Reference value :  2.00089e-06
 Reference value :  2.00139e-06
 Reference value :  2.00190e-06
 Reference value :  2.00243e-06
 Reference value :  2.00309e-06
 Reference value :  2.00375e-06
 Reference value :  2.00452e-06
 Reference value :  2.00515e-06
 Reference value :  2.00585e-06
 Reference value :  2.00653e-06
 Reference value :  2.00722e-06
 Reference value :  2.00797e-06
 Reference value :  2.00886e-06
 Reference value :  2.00988e-06
 Reference value :  2.01149e-06
 Reference value :  2.01378e-06
 Reference value :  2.01532e-06
 Reference value :  2.01706e-06
 Reference value :  2.01870e-06
 Reference value :  2.01995e-06
 Reference value :  2.02112e-06
 Reference value :  2.02221e-06
 Reference value :  2.02347e-06
 Reference value :  2.02497e-06
 Reference value :  2.02646e-06
 Reference value :  2.02899e-06
 Reference value :  2.03202e-06
 Reference value :  2.03808e-06
 Reference value :  2.04807e-06
 Reference value :  2.05849e-06
 Reference value :  2.07040e-06
 Reference value :  2.07840e-06
 Reference value :  2.08616e-06
 Reference value :  2.09147e-06
 Reference value :  2.09630e-06
 Reference value :  2.10551e-06
 Reference value :  2.11426e-06
 Reference value :  2.12857e-06
 Reference value :  2.14264e-06
 Reference value :  2.16852e-06
 Reference value :  2.20427e-06
 Reference value :  2.25010e-06
 Reference value :  2.25011e-06
 Reference value :  2.25013e-06
 Reference value :  2.25017e-06
 Reference value :  2.25020e-06
 Reference value :  2.25020e-06
 Reference value :  2.25020e-06
 Reference value :  2.25021e-06
 Reference value :  2.25021e-06
 Reference value :  2.25022e-06
 Reference value :  2.25025e-06
 Reference value :  2.25029e-06
 Reference value :  2.25039e-06
 Reference value :  2.25058e-06
 Reference value :  2.25091e-06
 Reference value :  2.25141e-06
 Reference value :  2.25198e-06
 Reference value :  2.25258e-06
 Reference value :  2.25323e-06
 Reference value :  2.25406e-06
 Reference value :  2.25469e-06
 Reference value :  2.25541e-06
 Reference value :  2.25620e-06
 Reference value :  2.25701e-06
 Reference value :  2.25814e-06
 Reference value :  2.25975e-06
 Reference value :  2.26175e-06
 Reference value :  2.26448e-06
 Reference value :  2.26839e-06
 Reference value :  2.27619e-06
 Reference value :  2.29180e-06
 Reference value :  2.32302e-06
 Reference value :  2.37468e-06
 Reference value :  2.43135e-06
 Reference value :  2.49469e-06
 Reference value :  2.50000e-06
 Reference value :  2.50001e-06
 Reference value :  2.50003e-06
 Reference value :  2.50007e-06
 Reference value :  2.50010e-06
 Reference value :  2.50010e-06
 Reference value :  2.50011e-06
 Reference value :  2.50013e-06
 Reference value :  2.50016e-06
 Reference value :  2.50023e-06
 Reference value :  2.50037e-06
 Reference value :  2.50054e-06
 Reference value :  2.50090e-06
 Reference value :  2.50139e-06
 Reference value :  2.50191e-06
 Reference value :  2.50245e-06
 Reference value :  2.50312e-06
 Reference value :  2.50378e-06
 Reference value :  2.50452e-06
 Reference value :  2.50540e-06
 Reference value :  2.50622e-06
 Reference value :  2.50750e-06
 Reference value :  2.50884e-06
 Reference value :  2.51027e-06
 Reference value :  2.51155e-06
 Reference value :  2.51288e-06
 Reference value :  2.51435e-06
 Reference value :  2.51586e-06
 Reference value :  2.52080e-06
 Reference value :  2.52722e-06
 Reference value :  2.53801e-06
 Reference value :  2.55958e-06
 Reference value :  2.68905e-06
 Reference value :  2.75010e-06
 Reference value :  2.75011e-06
 Reference value :  2.75013e-06
 Reference value :  2.75017e-06
 Reference value :  2.75020e-06
 Reference value :  2.75020e-06
 Reference value :  2.75020e-06
 Reference value :  2.75021e-06
 Reference value :  2.75021e-06
 Reference value :  2.75022e-06
 Reference value :  2.75025e-06
 Reference value :  2.75029e-06
 Reference value :  2.75039e-06
 Reference value :  2.75058e-06
 Reference value :  2.75091e-06
 Reference value :  2.75140e-06
 Reference value :  2.75198e-06
 Reference value :  2.75258e-06
 Reference value :  2.75323e-06
 Reference value :  2.75406e-06
 Reference value :  2.75468e-06
 Reference value :  2.75539e-06
 Reference value :  2.75604e-06
 Reference value :  2.75677e-06
 Reference value :  2.75766e-06
 Reference value :  2.75865e-06
 Reference value :  2.76065e-06
 Reference value :  2.76275e-06
 Reference value :  2.76630e-06
 Reference value :  2.77066e-06
 Reference value :  2.77939e-06
 Reference value :  2.79684e-06
 Reference value :  2.83175e-06
 Reference value :  2.90156e-06
 Reference value :  3.00000e-06
 Reference value :  3.00001e-06
 Reference value :  3.00003e-06
 Reference value :  3.00007e-06
 Reference value :  3.00010e-06
 Reference value :  3.00010e-06
 Reference value :  3.00011e-06
 Reference value :  3.00013e-06
 Reference value :  3.00016e-06
 Reference value :  3.00023e-06
 Reference value :  3.00036e-06
 Reference value :  3.00054e-06
 Reference value :  3.00089e-06
 Reference value :  3.00139e-06
 Reference value :  3.00190e-06
 Reference value :  3.00243e-06
 Reference value :  3.00310e-06
 Reference value :  3.00375e-06
 Reference value :  3.00453e-06
 Reference value :  3.00519e-06
 Reference value :  3.00590e-06
 Reference value :  3.00677e-06
 Reference value :  3.00753e-06
 Reference value :  3.00833e-06
 Reference value :  3.00950e-06
 Reference value :  3.01055e-06
 Reference value :  3.01259e-06
 Reference value :  3.01496e-06
 Reference value :  3.01682e-06
 Reference value :  3.01885e-06
 Reference value :  3.02022e-06
 Reference value :  3.02176e-06
 Reference value :  3.02314e-06
 Reference value :  3.02460e-06
 Reference value :  3.02631e-06
 Reference value :  3.02863e-06
 Reference value :  3.03108e-06
 Reference value :  3.03579e-06
 Reference value :  3.04214e-06
 Reference value :  3.05264e-06
 Reference value :  3.06890e-06
 Reference value :  3.10063e-06
 Reference value :  3.13991e-06
 Reference value :  3.17418e-06
 Reference value :  3.21593e-06
 Reference value :  3.25010e-06
 Reference value :  3.25011e-06
 Reference value :  3.25013e-06
 Reference value :  3.25017e-06
 Reference value :  3.25020e-06
 Reference value :  3.25020e-06
 Reference value :  3.25020e-06
 Reference value :  3.25021e-06
 Reference value :  3.25021e-06
 Reference value :  3.25022e-06
 Reference value :  3.25025e-06
 Reference value :  3.25029e-06
 Reference value :  3.25039e-06
 Reference value :  3.25058e-06
 Reference value :  3.25091e-06
 Reference value :  3.25140e-06
 Reference value :  3.25204e-06
 Reference value :  3.25262e-06
 Reference value :  3.25330e-06
 Reference value :  3.25414e-06
 Reference value :  3.25475e-06
 Reference value :  3.25546e-06
 Reference value :  3.25635e-06
 Reference value :  3.25724e-06
 Reference value :  3.25832e-06
 Reference value :  3.26024e-06
 Reference value :  3.26219e-06
 Reference value :  3.26538e-06
 Reference value :  3.26933e-06
 Reference value :  3.27722e-06
 Reference value :  3.29301e-06
 Reference value :  3.32459e-06
 Reference value :  3.38774e-06
 Reference value :  3.50000e-06
 Reference value :  3.50001e-06
 Reference value :  3.50003e-06
 Reference value :  3.50007e-06
 Reference value :  3.50010e-06
 Reference value :  3.50010e-06
 Reference value :  3.50011e-06
 Reference value :  3.50013e-06
 Reference value :  3.50016e-06
 Reference value :  3.50023e-06
 Reference value :  3.50037e-06
 Reference value :  3.50054e-06
 Reference value :  3.50090e-06
 Reference value :  3.50139e-06
 Reference value :  3.50191e-06
 Reference value :  3.50245e-06
 Reference value :  3.50311e-06
 Reference value :  3.50378e-06
 Reference value :  3.50452e-06
 Reference value :  3.50537e-06
 Reference value :  3.50619e-06
 Reference value :  3.50732e-06
 Reference value :  3.50871e-06
 Reference value :  3.50988e-06
 Reference value :  3.51111e-06
 Reference value :  3.51249e-06
 Reference value :  3.51407e-06
 Reference value :  3.51570e-06
 Reference value :  3.51750e-06
 Reference value :  3.52109e-06
 Reference value :  3.52659e-06
 Reference value :  3.53750e-06
 Reference value :  3.55932e-06
 Reference value :  3.60163e-06
 Reference value :  3.68626e-06
 Reference value :  3.75010e-06
 Reference value :  3.75011e-06
 Reference value :  3.75013e-06
 Reference value :  3.75017e-06
 Reference value :  3.75020e-06
 Reference value :  3.75020e-06
 Reference value :  3.75020e-06
 Reference value :  3.75021e-06
 Reference value :  3.75021e-06
 Reference value :  3.75022e-06
 Reference value :  3.75025e-06
 Reference value :  3.75039e-06
 Reference value :  3.75058e-06
 Reference value :  3.75091e-06
 Reference value :  3.75140e-06
 Reference value :  3.75198e-06
 Reference value :  3.75258e-06
 Reference value :  3.75322e-06
 Reference value :  3.75406e-06
 Reference value :  3.75468e-06
 Reference value :  3.75539e-06
 Reference value :  3.75604e-06
 Reference value :  3.75676e-06
 Reference value :  3.75765e-06
 Reference value :  3.76065e-06
 Reference value :  3.76629e-06
 Reference value :  3.77064e-06
 Reference value :  3.79675e-06
 Reference value :  3.83155e-06
 Reference value :  3.90117e-06
 Reference value :  4.00000e-06
 Reference value :  4.00001e-06
 Reference value :  4.00003e-06
 Reference value :  4.00007e-06
 Reference value :  4.00010e-06
 Reference value :  4.00010e-06
 Reference value :  4.00011e-06
 Reference value :  4.00013e-06
 Reference value :  4.00023e-06
 Reference value :  4.00036e-06
 Reference value :  4.00054e-06
 Reference value :  4.00089e-06
 Reference value :  4.00139e-06
 Reference value :  4.00190e-06
 Reference value :  4.00243e-06
 Reference value :  4.00375e-06
 Reference value :  4.00453e-06
 Reference value :  4.00519e-06
 Reference value :  4.00590e-06
 Reference value :  4.00677e-06
 Reference value :  4.00755e-06
 Reference value :  4.00836e-06
 Reference value :  4.00945e-06
 Reference value :  4.01058e-06
 Reference value :  4.01259e-06
 Reference value :  4.01503e-06
 Reference value :  4.01689e-06
 Reference value :  4.01895e-06
 Reference value :  4.02061e-06
 Reference value :  4.02239e-06
 Reference value :  4.02413e-06
 Reference value :  4.02621e-06
 Reference value :  4.02814e-06
 Reference value :  4.03107e-06
 Reference value :  4.03491e-06
 Reference value :  4.04180e-06
 Reference value :  4.05383e-06
 Reference value :  4.06923e-06
 Reference value :  4.08284e-06
 Reference value :  4.09647e-06
 Reference value :  4.10601e-06
 Reference value :  4.11507e-06
 Reference value :  4.12532e-06
 Reference value :  4.13259e-06
 Reference value :  4.14189e-06
 Reference value :  4.15838e-06
 Reference value :  4.17527e-06
 Reference value :  4.19459e-06
 Reference value :  4.22334e-06
 Reference value :  4.23665e-06
 Reference value :  4.25010e-06
 Reference value :  4.25011e-06
 Reference value :  4.25013e-06
 Reference value :  4.25017e-06
 Reference value :  4.25020e-06
 Reference value :  4.25020e-06
 Reference value :  4.25020e-06
 Reference value :  4.25021e-06
 Reference value :  4.25021e-06
 Reference value :  4.25022e-06
 Reference value :  4.25025e-06
 Reference value :  4.25029e-06
 Reference value :  4.25039e-06
 Reference value :  4.25057e-06
 Reference value :  4.25090e-06
 Reference value :  4.25139e-06
 Reference value :  4.25202e-06
 Reference value :  4.25260e-06
 Reference value :  4.25328e-06
 Reference value :  4.25412e-06
 Reference value :  4.25473e-06
 Reference value :  4.25544e-06
 Reference value :  4.25635e-06
 Reference value :  4.25723e-06
 Reference value :  4.25833e-06
 Reference value :  4.26042e-06
 Reference value :  4.26234e-06
 Reference value :  4.26563e-06
 Reference value :  4.26957e-06
 Reference value :  4.27745e-06
 Reference value :  4.29320e-06
 Reference value :  4.32471e-06
 Reference value :  4.38772e-06
 Reference value :  4.50000e-06
 Reference value :  4.50001e-06
 Reference value :  4.50003e-06
 Reference value :  4.50007e-06
 Reference value :  4.50010e-06
 Reference value :  4.50010e-06
 Reference value :  4.50013e-06
 Reference value :  4.50016e-06
 Reference value :  4.50023e-06
 Reference value :  4.50037e-06
 Reference value :  4.50054e-06
 Reference value :  4.50090e-06
 Reference value :  4.50139e-06
 Reference value :  4.50191e-06
 Reference value :  4.50245e-06
 Reference value :  4.50311e-06
 Reference value :  4.50377e-06
 Reference value :  4.50452e-06
 Reference value :  4.50537e-06
 Reference value :  4.50619e-06
 Reference value :  4.50733e-06
 Reference value :  4.50870e-06
 Reference value :  4.50994e-06
 Reference value :  4.51121e-06
 Reference value :  4.51239e-06
 Reference value :  4.51372e-06
 Reference value :  4.51504e-06
 Reference value :  4.51657e-06
 Reference value :  4.51963e-06
 Reference value :  4.52539e-06
 Reference value :  4.53646e-06
 Reference value :  4.55858e-06
 Reference value :  4.60283e-06
 Reference value :  4.69132e-06
 Reference value :  4.75010e-06
 Reference value :  4.75011e-06
 Reference value :  4.75013e-06
 Reference value :  4.75017e-06
 Reference value :  4.75020e-06
 Reference value :  4.75020e-06
 Reference value :  4.75020e-06
 Reference value :  4.75021e-06
 Reference value :  4.75021e-06
 Reference value :  4.75022e-06
 Reference value :  4.75025e-06
 Reference value :  4.75029e-06
 Reference value :  4.75039e-06
 Reference value :  4.75058e-06
 Reference value :  4.75091e-06
 Reference value :  4.75140e-06
 Reference value :  4.75204e-06
 Reference value :  4.75261e-06
 Reference value :  4.75330e-06
 Reference value :  4.75414e-06
 Reference value :  4.75475e-06
 Reference value :  4.75544e-06
 Reference value :  4.75614e-06
 Reference value :  4.75687e-06
 Reference value :  4.75783e-06
 Reference value :  4.75889e-06
 Reference value :  4.76101e-06
 Reference value :  4.76320e-06
 Reference value :  4.76702e-06
 Reference value :  4.77193e-06
 Reference value :  4.78174e-06
 Reference value :  4.80136e-06
 Reference value :  4.84061e-06
 Reference value :  4.91910e-06
 Reference value :  5.00000e-06
 Reference value :  5.00001e-06
 Reference value :  5.00003e-06
 Reference value :  5.00007e-06
 Reference value :  5.00010e-06
 Reference value :  5.00010e-06
 Reference value :  5.00011e-06
 Reference value :  5.00013e-06
 Reference value :  5.00016e-06
 Reference value :  5.00023e-06
 Reference value :  5.00036e-06
 Reference value :  5.00054e-06
 Reference value :  5.00089e-06
 Reference value :  5.00138e-06
 Reference value :  5.00189e-06
 Reference value :  5.00243e-06
 Reference value :  5.00309e-06
 Reference value :  5.00374e-06
 Reference value :  5.00452e-06
 Reference value :  5.00518e-06
 Reference value :  5.00589e-06
 Reference value :  5.00675e-06
 Reference value :  5.00755e-06
 Reference value :  5.00838e-06
 Reference value :  5.00954e-06
 Reference value :  5.01074e-06
 Reference value :  5.01291e-06
 Reference value :  5.01552e-06
 Reference value :  5.01746e-06
 Reference value :  5.01914e-06
 Reference value :  5.02074e-06
 Reference value :  5.02238e-06
 Reference value :  5.02401e-06
 Reference value :  5.02587e-06
 Reference value :  5.02779e-06
 Reference value :  5.03057e-06
 Reference value :  5.03429e-06
 Reference value :  5.04164e-06
 Reference value :  5.05022e-06
 Reference value :  5.05664e-06
 Reference value :  5.06377e-06
 Reference value :  5.06883e-06
 Reference value :  5.07402e-06
 Reference value :  5.07953e-06
 Reference value :  5.08566e-06
 Reference value :  5.09349e-06
 Reference value :  5.09981e-06
 Reference value :  5.11979e-06
 Reference value :  5.15637e-06
 Reference value :  5.18609e-06
 Reference value :  5.23646e-06
 Reference value :  5.25010e-06
 Reference value :  5.25011e-06
 Reference value :  5.25013e-06
 Reference value :  5.25017e-06
 Reference value :  5.25020e-06
 Reference value :  5.25020e-06
 Reference value :  5.25020e-06
 Reference value :  5.25021e-06
 Reference value :  5.25021e-06
 Reference value :  5.25022e-06
 Reference value :  5.25025e-06
 Reference value :  5.25029e-06
 Reference value :  5.25039e-06
 Reference value :  5.25058e-06
 Reference value :  5.25091e-06
 Reference value :  5.25140e-06
 Reference value :  5.25203e-06
 Reference value :  5.25261e-06
 Reference value :  5.25330e-06
 Reference value :  5.25414e-06
 Reference value :  5.25474e-06
 Reference value :  5.25542e-06
 Reference value :  5.25625e-06
 Reference value :  5.25727e-06
 Reference value :  5.25824e-06
 Reference value :  5.26018e-06
 Reference value :  5.26211e-06
 Reference value :  5.26527e-06
 Reference value :  5.26915e-06
 Reference value :  5.27690e-06
 Reference value :  5.29241e-06
 Reference value :  5.32343e-06
 Reference value :  5.38545e-06
 Reference value :  5.50000e-06
 Reference value :  5.50001e-06
 Reference value :  5.50003e-06
 Reference value :  5.50007e-06
 Reference value :  5.50010e-06
 Reference value :  5.50010e-06
 Reference value :  5.50011e-06
 Reference value :  5.50013e-06
 Reference value :  5.50023e-06
 Reference value :  5.50037e-06
 Reference value :  5.50090e-06
 Reference value :  5.50140e-06
 Reference value :  5.50191e-06
 Reference value :  5.50242e-06
 Reference value :  5.50304e-06
 Reference value :  5.50370e-06
 Reference value :  5.50456e-06
 Reference value :  5.50538e-06
 Reference value :  5.50630e-06
 Reference value :  5.50761e-06
 Reference value :  5.50882e-06
 Reference value :  5.51017e-06
 Reference value :  5.51150e-06
 Reference value :  5.51282e-06
 Reference value :  5.51418e-06
 Reference value :  5.51572e-06
 Reference value :  5.51745e-06
 Reference value :  5.52055e-06
 Reference value :  5.52509e-06
 Reference value :  5.53373e-06
 Reference value :  5.54977e-06
 Reference value :  5.63851e-06
 Reference value :  5.75010e-06
 Reference value :  5.75011e-06
 Reference value :  5.75013e-06
 Reference value :  5.75017e-06
 Reference value :  5.75020e-06
 Reference value :  5.75020e-06
 Reference value :  5.75020e-06
 Reference value :  5.75021e-06
 Reference value :  5.75021e-06
 Reference value :  5.75022e-06
 Reference value :  5.75025e-06
 Reference value :  5.75029e-06
 Reference value :  5.75039e-06
 Reference value :  5.75058e-06
 Reference value :  5.75091e-06
 Reference value :  5.75141e-06
 Reference value :  5.75204e-06
 Reference value :  5.75261e-06
 Reference value :  5.75330e-06
 Reference value :  5.75414e-06
 Reference value :  5.75475e-06
 Reference value :  5.75544e-06
 Reference value :  5.75614e-06
 Reference value :  5.75687e-06
 Reference value :  5.75783e-06
 Reference value :  5.75889e-06
 Reference value :  5.75998e-06
 Reference value :  5.76145e-06
 Reference value :  5.76344e-06
 Reference value :  5.76550e-06
 Reference value :  5.76895e-06
 Reference value :  5.77339e-06
 Reference value :  5.80006e-06
 Reference value :  5.83562e-06
 Reference value :  5.90674e-06
 Reference value :  6.00000e-06
 Reference value :  6.00001e-06
 Reference value :  6.00003e-06
 Reference value :  6.00007e-06
 Reference value :  6.00010e-06
 Reference value :  6.00010e-06
 Reference value :  6.00011e-06
 Reference value :  6.00013e-06
 Reference value :  6.00016e-06
 Reference value :  6.00023e-06
 Reference value :  6.00036e-06
 Reference value :  6.00054e-06
 Reference value :  6.00089e-06
 Reference value :  6.00139e-06
 Reference value :  6.00190e-06
 Reference value :  6.00243e-06
 Reference value :  6.00309e-06
 Reference value :  6.00375e-06
 Reference value :  6.00452e-06
 Reference value :  6.00515e-06
 Reference value :  6.00584e-06
 Reference value :  6.00654e-06
 Reference value :  6.00726e-06
 Reference value :  6.00801e-06
 Reference value :  6.00908e-06
 Reference value :  6.01014e-06
 Reference value :  6.01205e-06
 Reference value :  6.01326e-06
 Reference value :  6.01466e-06
 Reference value :  6.01601e-06
 Reference value :  6.01753e-06
 Reference value :  6.01894e-06
 Reference value :  6.02041e-06
 Reference value :  6.02185e-06
 Reference value :  6.02316e-06
 Reference value :  6.02460e-06
 Reference value :  6.02618e-06
 Reference value :  6.02832e-06
 Reference value :  6.03068e-06
 Reference value :  6.03501e-06
 Reference value :  6.04108e-06
 Reference value :  6.04999e-06
 Reference value :  6.05846e-06
 Reference value :  6.06973e-06
 Reference value :  6.08722e-06
 Reference value :  6.10735e-06
 Reference value :  6.13110e-06
 Reference value :  6.17312e-06
 Reference value :  6.21668e-06
 Reference value :  6.25010e-06
 Reference value :  6.25011e-06
 Reference value :  6.25013e-06
 Reference value :  6.25017e-06
 Reference value :  6.25020e-06
 Reference value :  6.25020e-06
 Reference value :  6.25020e-06
 Reference value :  6.25021e-06
 Reference value :  6.25021e-06
 Reference value :  6.25022e-06
 Reference value :  6.25025e-06
 Reference value :  6.25029e-06
 Reference value :  6.25039e-06
 Reference value :  6.25058e-06
 Reference value :  6.25091e-06
 Reference value :  6.25141e-06
 Reference value :  6.25204e-06
 Reference value :  6.25262e-06
 Reference value :  6.25330e-06
 Reference value :  6.25414e-06
 Reference value :  6.25474e-06
 Reference value :  6.25543e-06
 Reference value :  6.25628e-06
 Reference value :  6.25721e-06
 Reference value :  6.25824e-06
 Reference value :  6.26029e-06
 Reference value :  6.26219e-06
 Reference value :  6.26929e-06
 Reference value :  6.27701e-06
 Reference value :  6.29245e-06
 Reference value :  6.38511e-06
 Reference value :  6.50000e-06
 Reference value :  6.50001e-06
 Reference value :  6.50003e-06
 Reference value :  6.50007e-06
 Reference value :  6.50010e-06
 Reference value :  6.50010e-06
 Reference value :  6.50013e-06
 Reference value :  6.50023e-06
 Reference value :  6.50054e-06
 Reference value :  6.50090e-06
 Reference value :  6.50140e-06
 Reference value :  6.50191e-06
 Reference value :  6.50242e-06
 Reference value :  6.50304e-06
 Reference value :  6.50370e-06
 Reference value :  6.50456e-06
 Reference value :  6.50535e-06
 Reference value :  6.50628e-06
 Reference value :  6.50743e-06
 Reference value :  6.50873e-06
 Reference value :  6.50988e-06
 Reference value :  6.51108e-06
 Reference value :  6.51219e-06
 Reference value :  6.51350e-06
 Reference value :  6.51482e-06
 Reference value :  6.51630e-06
 Reference value :  6.51928e-06
 Reference value :  6.52523e-06
 Reference value :  6.53559e-06
 Reference value :  6.55630e-06
 Reference value :  6.59773e-06
 Reference value :  6.68058e-06
 Reference value :  6.75010e-06
 Reference value :  6.75011e-06
 Reference value :  6.75013e-06
 Reference value :  6.75017e-06
 Reference value :  6.75020e-06
 Reference value :  6.75020e-06
 Reference value :  6.75020e-06
 Reference value :  6.75021e-06
 Reference value :  6.75021e-06
 Reference value :  6.75022e-06
 Reference value :  6.75025e-06
 Reference value :  6.75029e-06
 Reference value :  6.75039e-06
 Reference value :  6.75058e-06
 Reference value :  6.75091e-06
 Reference value :  6.75141e-06
 Reference value :  6.75204e-06
 Reference value :  6.75262e-06
 Reference value :  6.75330e-06
 Reference value :  6.75415e-06
 Reference value :  6.75476e-06
 Reference value :  6.75545e-06
 Reference value :  6.75615e-06
 Reference value :  6.75688e-06
 Reference value :  6.75786e-06
 Reference value :  6.75892e-06
 Reference value :  6.76008e-06
 Reference value :  6.76152e-06
 Reference value :  6.76363e-06
 Reference value :  6.76565e-06
 Reference value :  6.76931e-06
 Reference value :  6.78299e-06
 Reference value :  6.80122e-06
 Reference value :  6.83770e-06
 Reference value :  6.91066e-06
 Reference value :  7.00000e-06
 Reference value :  7.00001e-06
 Reference value :  7.00003e-06
 Reference value :  7.00007e-06
 Reference value :  7.00010e-06
 Reference value :  7.00010e-06
 Reference value :  7.00011e-06
 Reference value :  7.00013e-06
 Reference value :  7.00016e-06
 Reference value :  7.00023e-06
 Reference value :  7.00036e-06
 Reference value :  7.00054e-06
 Reference value :  7.00089e-06
 Reference value :  7.00139e-06
 Reference value :  7.00190e-06
 Reference value :  7.00243e-06
 Reference value :  7.00309e-06
 Reference value :  7.00375e-06
 Reference value :  7.00452e-06
 Reference value :  7.00515e-06
 Reference value :  7.00584e-06
 Reference value :  7.00653e-06
 Reference value :  7.00722e-06
 Reference value :  7.00794e-06
 Reference value :  7.00900e-06
 Reference value :  7.01000e-06
 Reference value :  7.01151e-06
 Reference value :  7.01299e-06
 Reference value :  7.01436e-06
 Reference value :  7.01585e-06
 Reference value :  7.01745e-06
 Reference value :  7.01929e-06
 Reference value :  7.02052e-06
 Reference value :  7.02185e-06
 Reference value :  7.02311e-06
 Reference value :  7.02441e-06
 Reference value :  7.02593e-06
 Reference value :  7.02804e-06
 Reference value :  7.03021e-06
 Reference value :  7.03411e-06
 Reference value :  7.03983e-06
 Reference value :  7.04696e-06
 Reference value :  7.05457e-06
 Reference value :  7.06363e-06
 Reference value :  7.07373e-06
 Reference value :  7.08237e-06
 Reference value :  7.09117e-06
 Reference value :  7.10086e-06
 Reference value :  7.11843e-06
 Reference value :  7.13535e-06
 Reference value :  7.15801e-06
 Reference value :  7.18226e-06
 Reference value :  7.23076e-06
 Reference value :  7.25010e-06
 Reference value :  7.25011e-06
 Reference value :  7.25013e-06
 Reference value :  7.25017e-06
 Reference value :  7.25020e-06
 Reference value :  7.25020e-06
 Reference value :  7.25020e-06
 Reference value :  7.25021e-06
 Reference value :  7.25021e-06
 Reference value :  7.25022e-06
 Reference value :  7.25025e-06
 Reference value :  7.25029e-06
 Reference value :  7.25039e-06
 Reference value :  7.25058e-06
 Reference value :  7.25092e-06
 Reference value :  7.25141e-06
 Reference value :  7.25198e-06
 Reference value :  7.25258e-06
 Reference value :  7.25322e-06
 Reference value :  7.25406e-06
 Reference value :  7.25467e-06
 Reference value :  7.25538e-06
 Reference value :  7.25619e-06
 Reference value :  7.25703e-06
 Reference value :  7.25813e-06
 Reference value :  7.25984e-06
 Reference value :  7.26179e-06
 Reference value :  7.26460e-06
 Reference value :  7.26847e-06
 Reference value :  7.27620e-06
 Reference value :  7.29168e-06
 Reference value :  7.32151e-06
 Reference value :  7.38119e-06
 Reference value :  7.50000e-06
 Reference value :  7.50001e-06
 Reference value :  7.50003e-06
 Reference value :  7.50007e-06
 Reference value :  7.50010e-06
 Reference value :  7.50010e-06
 Reference value :  7.50011e-06
 Reference value :  7.50016e-06
 Reference value :  7.50023e-06
 Reference value :  7.50037e-06
 Reference value :  7.50054e-06
 Reference value :  7.50090e-06
 Reference value :  7.50142e-06
 Reference value :  7.50194e-06
 Reference value :  7.50250e-06
 Reference value :  7.50316e-06
 Reference value :  7.50386e-06
 Reference value :  7.50459e-06
 Reference value :  7.50541e-06
 Reference value :  7.50627e-06
 Reference value :  7.50744e-06
 Reference value :  7.50887e-06
 Reference value :  7.51013e-06
 Reference value :  7.51143e-06
 Reference value :  7.51260e-06
 Reference value :  7.51396e-06
 Reference value :  7.51529e-06
 Reference value :  7.51683e-06
 Reference value :  7.51991e-06
 Reference value :  7.52567e-06
 Reference value :  7.53661e-06
 Reference value :  7.55848e-06
 Reference value :  7.60224e-06
 Reference value :  7.68974e-06
 Reference value :  7.75010e-06
 Reference value :  7.75011e-06
 Reference value :  7.75013e-06
 Reference value :  7.75017e-06
 Reference value :  7.75020e-06
 Reference value :  7.75020e-06
 Reference value :  7.75020e-06
 Reference value :  7.75021e-06
 Reference value :  7.75021e-06
 Reference value :  7.75022e-06
 Reference value :  7.75025e-06
 Reference value :  7.75029e-06
 Reference value :  7.75039e-06
 Reference value :  7.75058e-06
 Reference value :  7.75092e-06
 Reference value :  7.75141e-06
 Reference value :  7.75198e-06
 Reference value :  7.75258e-06
 Reference value :  7.75322e-06
 Reference value :  7.75406e-06
 Reference value :  7.75467e-06
 Reference value :  7.75537e-06
 Reference value :  7.75602e-06
 Reference value :  7.75674e-06
 Reference value :  7.75764e-06
 Reference value :  7.75865e-06
 Reference value :  7.76066e-06
 Reference value :  7.76277e-06
 Reference value :  7.77079e-06
 Reference value :  7.79738e-06
 Reference value :  7.83284e-06
 Reference value :  7.90375e-06
 Reference value :  8.00000e-06
 Reference value :  8.00001e-06
 Reference value :  8.00003e-06
 Reference value :  8.00007e-06
 Reference value :  8.00010e-06
 Reference value :  8.00010e-06
 Reference value :  8.00011e-06
 Reference value :  8.00013e-06
 Reference value :  8.00016e-06
 Reference value :  8.00023e-06
 Reference value :  8.00036e-06
 Reference value :  8.00054e-06
 Reference value :  8.00090e-06
 Reference value :  8.00141e-06
 Reference value :  8.00193e-06
 Reference value :  8.00248e-06
 Reference value :  8.00314e-06
 Reference value :  8.00383e-06
 Reference value :  8.00463e-06
 Reference value :  8.00531e-06
 Reference value :  8.00603e-06
 Reference value :  8.00682e-06
 Reference value :  8.00759e-06
 Reference value :  8.00843e-06
 Reference value :  8.00958e-06
 Reference value :  8.01089e-06
 Reference value :  8.01303e-06
 Reference value :  8.01567e-06
 Reference value :  8.01766e-06
 Reference value :  8.01986e-06
 Reference value :  8.02201e-06
 Reference value :  8.02449e-06
 Reference value :  8.02834e-06
 Reference value :  8.03343e-06
 Reference value :  8.04218e-06
 Reference value :  8.08023e-06
 Reference value :  8.12249e-06
 Reference value :  8.19489e-06
 Reference value :  8.25010e-06
 Reference value :  8.25011e-06
 Reference value :  8.25013e-06
 Reference value :  8.25017e-06
 Reference value :  8.25020e-06
 Reference value :  8.25020e-06
 Reference value :  8.25020e-06
 Reference value :  8.25021e-06
 Reference value :  8.25021e-06
 Reference value :  8.25022e-06
 Reference value :  8.25025e-06
 Reference value :  8.25029e-06
 Reference value :  8.25039e-06
 Reference value :  8.25058e-06
 Reference value :  8.25096e-06
 Reference value :  8.25143e-06
 Reference value :  8.25198e-06
 Reference value :  8.25258e-06
 Reference value :  8.25322e-06
 Reference value :  8.25405e-06
 Reference value :  8.25495e-06
 Reference value :  8.25612e-06
 Reference value :  8.25752e-06
 Reference value :  8.25885e-06
 Reference value :  8.26110e-06
 Reference value :  8.26350e-06
 Reference value :  8.26727e-06
 Reference value :  8.27288e-06
 Reference value :  8.28409e-06
 Reference value :  8.30652e-06
 Reference value :  8.35137e-06
 Reference value :  8.44107e-06
 Reference value :  8.50001e-06
 Reference value :  8.50007e-06
 Reference value :  8.50010e-06
 Reference value :  8.50011e-06
 Reference value :  8.50013e-06
 Reference value :  8.50016e-06
 Reference value :  8.50023e-06
 Reference value :  8.50036e-06
 Reference value :  8.50062e-06
 Reference value :  8.50102e-06
 Reference value :  8.50173e-06
 Reference value :  8.50238e-06
 Reference value :  8.50294e-06
 Reference value :  8.50362e-06
 Reference value :  8.50426e-06
 Reference value :  8.50502e-06
 Reference value :  8.50586e-06
 Reference value :  8.50680e-06
 Reference value :  8.50827e-06
 Reference value :  8.50963e-06
 Reference value :  8.51111e-06
 Reference value :  8.51253e-06
 Reference value :  8.51419e-06
 Reference value :  8.51634e-06
 Reference value :  8.51873e-06
 Reference value :  8.52351e-06
 Reference value :  8.52876e-06
 Reference value :  8.53252e-06
 Reference value :  8.53564e-06
 Reference value :  8.53858e-06
 Reference value :  8.54109e-06
 Reference value :  8.54312e-06
 Reference value :  8.54512e-06
 Reference value :  8.54710e-06
 Reference value :  8.54889e-06
 Reference value :  8.55026e-06
 Reference value :  8.55317e-06
 Reference value :  8.55810e-06
 Reference value :  8.56469e-06
 Reference value :  8.57012e-06
 Reference value :  8.58381e-06
 Reference value :  8.59202e-06
 Reference value :  8.60243e-06
 Reference value :  8.61504e-06
 Reference value :  8.63464e-06
 Reference value :  8.65681e-06
 Reference value :  8.68135e-06
 Reference value :  8.71204e-06
 Reference value :  8.75010e-06
 Reference value :  8.75011e-06
 Reference value :  8.75013e-06
 Reference value :  8.75017e-06
 Reference value :  8.75020e-06
 Reference value :  8.75020e-06
 Reference value :  8.75020e-06
 Reference value :  8.75021e-06
 Reference value :  8.75021e-06
 Reference value :  8.75022e-06
 Reference value :  8.75025e-06
 Reference value :  8.75029e-06
 Reference value :  8.75039e-06
 Reference value :  8.75057e-06
 Reference value :  8.75094e-06
 Reference value :  8.75141e-06
 Reference value :  8.75198e-06
 Reference value :  8.75258e-06
 Reference value :  8.75323e-06
 Reference value :  8.75405e-06
 Reference value :  8.75469e-06
 Reference value :  8.75543e-06
 Reference value :  8.75623e-06
 Reference value :  8.75706e-06
 Reference value :  8.75817e-06
 Reference value :  8.75985e-06
 Reference value :  8.76180e-06
 Reference value :  8.76465e-06
 Reference value :  8.76852e-06
 Reference value :  8.77341e-06
 Reference value :  8.77897e-06
 Reference value :  8.78572e-06
 Reference value :  8.79030e-06
 Reference value :  8.79502e-06
 Reference value :  8.80021e-06
 Reference value :  8.80598e-06
 Reference value :  8.81404e-06
 Reference value :  8.82056e-06
 Reference value :  8.82816e-06
 Reference value :  8.83858e-06
 Reference value :  8.85471e-06
 Reference value :  8.87590e-06
 Reference value :  8.91038e-06
 Reference value :  9.00000e-06
No. of Data Rows : 1411
ngspice-44 done
