
Note: Compatibility modes selected: hs a


Circuit: ** sch_path: /home/ece/cace/sar-adc-using-sky130-pdk/runs/run_2025-09-13_00-46-00/parameters/dnl/run_3/sar_output_dnl.sch

option SCALE: Scale is set to 1e-06 for instance and model parameters
option SCALE: Scale is set to 1e-06 for instance and model parameters
option SCALE: Scale is set to 1e-06 for instance and model parameters
option SCALE: Scale is set to 1e-06 for instance and model parameters
Doing analysis at TEMP = 27.000000 and TNOM = 27.000000

Using KLU as Direct Linear Solver
Operating point simulation skipped by 'uic',
  now using transient initial conditions.
 Reference value :  1.00000e-12
 Reference value :  1.08400e-12
 Reference value :  2.29226e-12
 Reference value :  9.71579e-12
 Reference value :  6.32078e-11
 Reference value :  1.39728e-10
 Reference value :  4.57553e-10
 Reference value :  1.37838e-09
 Reference value :  3.21561e-09
 Reference value :  5.06454e-09
 Reference value :  6.73835e-09
 Reference value :  9.66446e-09
 Reference value :  1.19013e-08
 Reference value :  1.47536e-08
 Reference value :  2.53423e-08
 Reference value :  4.24357e-08
 Reference value :  8.24914e-08
 Reference value :  1.81031e-07
 Reference value :  2.22211e-07
 Reference value :  2.50110e-07
 Reference value :  2.50170e-07
 Reference value :  2.50222e-07
 Reference value :  2.50312e-07
 Reference value :  2.50750e-07
 Reference value :  2.51467e-07
 Reference value :  2.52382e-07
 Reference value :  2.53684e-07
 Reference value :  2.54937e-07
 Reference value :  2.56298e-07
 Reference value :  2.60462e-07
 Reference value :  2.74605e-07
 Reference value :  3.39137e-07
 Reference value :  5.00010e-07
 Reference value :  5.00070e-07
 Reference value :  5.00124e-07
 Reference value :  5.00537e-07
 Reference value :  5.01189e-07
 Reference value :  5.02030e-07
 Reference value :  5.03007e-07
 Reference value :  5.04130e-07
 Reference value :  5.07122e-07
 Reference value :  5.09859e-07
 Reference value :  5.12586e-07
 Reference value :  5.16084e-07
 Reference value :  5.25832e-07
 Reference value :  5.68615e-07
 Reference value :  7.50100e-07
 Reference value :  7.50170e-07
 Reference value :  7.50256e-07
 Reference value :  7.50703e-07
 Reference value :  7.51576e-07
 Reference value :  7.52526e-07
 Reference value :  7.53780e-07
 Reference value :  7.54923e-07
 Reference value :  7.56264e-07
 Reference value :  7.57938e-07
 Reference value :  7.60511e-07
 Reference value :  7.68226e-07
 Reference value :  8.12158e-07
 Reference value :  1.00000e-06
 Reference value :  1.00003e-06
 Reference value :  1.00010e-06
 Reference value :  1.00016e-06
 Reference value :  1.00054e-06
 Reference value :  1.00119e-06
 Reference value :  1.00163e-06
 Reference value :  1.00258e-06
 Reference value :  1.00308e-06
 Reference value :  1.00470e-06
 Reference value :  1.00574e-06
 Reference value :  1.00807e-06
 Reference value :  1.01010e-06
 Reference value :  1.01198e-06
 Reference value :  1.01373e-06
 Reference value :  1.01530e-06
 Reference value :  1.01713e-06
 Reference value :  1.01916e-06
 Reference value :  1.02600e-06
 Reference value :  1.09479e-06
 Reference value :  1.25010e-06
 Reference value :  1.25017e-06
 Reference value :  1.25026e-06
 Reference value :  1.25110e-06
 Reference value :  1.25203e-06
 Reference value :  1.25325e-06
 Reference value :  1.25377e-06
 Reference value :  1.25575e-06
 Reference value :  1.26280e-06
 Reference value :  1.29903e-06
 Reference value :  1.30879e-06
 Reference value :  1.31793e-06
 Reference value :  1.32882e-06
 Reference value :  1.35325e-06
 Reference value :  1.44614e-06
 Reference value :  1.50007e-06
 Reference value :  1.50012e-06
 Reference value :  1.50035e-06
 Reference value :  1.50086e-06
 Reference value :  1.50210e-06
 Reference value :  1.50306e-06
 Reference value :  1.50488e-06
 Reference value :  1.50630e-06
 Reference value :  1.50794e-06
 Reference value :  1.50982e-06
 Reference value :  1.51209e-06
 Reference value :  1.52665e-06
 Reference value :  1.63364e-06
 Reference value :  1.75013e-06
 Reference value :  1.75020e-06
 Reference value :  1.75026e-06
 Reference value :  1.75045e-06
 Reference value :  1.75110e-06
 Reference value :  1.75203e-06
 Reference value :  1.75325e-06
 Reference value :  1.75377e-06
 Reference value :  1.75491e-06
 Reference value :  1.75637e-06
 Reference value :  1.76131e-06
 Reference value :  1.80411e-06
 Reference value :  2.00000e-06
 Reference value :  2.00007e-06
 Reference value :  2.00012e-06
 Reference value :  2.00035e-06
 Reference value :  2.00086e-06
 Reference value :  2.00163e-06
 Reference value :  2.00258e-06
 Reference value :  2.00307e-06
 Reference value :  2.00418e-06
 Reference value :  2.00524e-06
 Reference value :  2.00649e-06
 Reference value :  2.00865e-06
 Reference value :  2.01027e-06
 Reference value :  2.01186e-06
 Reference value :  2.01341e-06
 Reference value :  2.01455e-06
 Reference value :  2.01650e-06
 Reference value :  2.01872e-06
 Reference value :  2.02195e-06
 Reference value :  2.03936e-06
 Reference value :  2.04956e-06
 Reference value :  2.06317e-06
 Reference value :  2.07248e-06
 Reference value :  2.08012e-06
 Reference value :  2.09300e-06
 Reference value :  2.10629e-06
 Reference value :  2.15436e-06
 Reference value :  2.25011e-06
 Reference value :  2.25020e-06
 Reference value :  2.25032e-06
 Reference value :  2.25110e-06
 Reference value :  2.25203e-06
 Reference value :  2.25324e-06
 Reference value :  2.25433e-06
 Reference value :  2.25646e-06
 Reference value :  2.26248e-06
 Reference value :  2.31241e-06
 Reference value :  2.50000e-06
 Reference value :  2.50007e-06
 Reference value :  2.50012e-06
 Reference value :  2.50035e-06
 Reference value :  2.50086e-06
 Reference value :  2.50159e-06
 Reference value :  2.50251e-06
 Reference value :  2.50356e-06
 Reference value :  2.50490e-06
 Reference value :  2.50625e-06
 Reference value :  2.50795e-06
 Reference value :  2.50986e-06
 Reference value :  2.51099e-06
 Reference value :  2.51902e-06
 Reference value :  2.57175e-06
 Reference value :  2.75011e-06
 Reference value :  2.75020e-06
 Reference value :  2.75032e-06
 Reference value :  2.75110e-06
 Reference value :  2.75203e-06
 Reference value :  2.75325e-06
 Reference value :  2.75377e-06
 Reference value :  2.75490e-06
 Reference value :  2.75623e-06
 Reference value :  2.75786e-06
 Reference value :  2.76045e-06
 Reference value :  2.76483e-06
 Reference value :  2.78501e-06
 Reference value :  2.91319e-06
 Reference value :  3.00003e-06
 Reference value :  3.00007e-06
 Reference value :  3.00012e-06
 Reference value :  3.00035e-06
 Reference value :  3.00086e-06
 Reference value :  3.00163e-06
 Reference value :  3.00258e-06
 Reference value :  3.00364e-06
 Reference value :  3.00471e-06
 Reference value :  3.00519e-06
 Reference value :  3.00639e-06
 Reference value :  3.00710e-06
 Reference value :  3.00921e-06
 Reference value :  3.01010e-06
 Reference value :  3.01105e-06
 Reference value :  3.01197e-06
 Reference value :  3.01371e-06
 Reference value :  3.01526e-06
 Reference value :  3.01708e-06
 Reference value :  3.01804e-06
 Reference value :  3.02088e-06
 Reference value :  3.02578e-06
 Reference value :  3.04528e-06
 Reference value :  3.07440e-06
 Reference value :  3.10190e-06
 Reference value :  3.11113e-06
 Reference value :  3.12999e-06
 Reference value :  3.17537e-06
 Reference value :  3.23584e-06
 Reference value :  3.25013e-06
 Reference value :  3.25020e-06
 Reference value :  3.25026e-06
 Reference value :  3.25045e-06
 Reference value :  3.25109e-06
 Reference value :  3.25203e-06
 Reference value :  3.25324e-06
 Reference value :  3.25378e-06
 Reference value :  3.25502e-06
 Reference value :  3.25966e-06
 Reference value :  3.28569e-06
 Reference value :  3.50000e-06
 Reference value :  3.50007e-06
 Reference value :  3.50012e-06
 Reference value :  3.50035e-06
 Reference value :  3.50086e-06
 Reference value :  3.50163e-06
 Reference value :  3.50307e-06
 Reference value :  3.50418e-06
 Reference value :  3.50630e-06
 Reference value :  3.50794e-06
 Reference value :  3.51093e-06
 Reference value :  3.52657e-06
 Reference value :  3.57205e-06
 Reference value :  3.75011e-06
 Reference value :  3.75017e-06
 Reference value :  3.75022e-06
 Reference value :  3.75045e-06
 Reference value :  3.75157e-06
 Reference value :  3.75251e-06
 Reference value :  3.75436e-06
 Reference value :  3.75635e-06
 Reference value :  3.76127e-06
 Reference value :  3.84785e-06
 Reference value :  4.00003e-06
 Reference value :  4.00012e-06
 Reference value :  4.00035e-06
 Reference value :  4.00086e-06
 Reference value :  4.00163e-06
 Reference value :  4.00258e-06
 Reference value :  4.00364e-06
 Reference value :  4.00473e-06
 Reference value :  4.00580e-06
 Reference value :  4.00866e-06
 Reference value :  4.01030e-06
 Reference value :  4.01341e-06
 Reference value :  4.01454e-06
 Reference value :  4.01647e-06
 Reference value :  4.01867e-06
 Reference value :  4.02188e-06
 Reference value :  4.02937e-06
 Reference value :  4.03520e-06
 Reference value :  4.04602e-06
 Reference value :  4.05519e-06
 Reference value :  4.06334e-06
 Reference value :  4.07953e-06
 Reference value :  4.10574e-06
 Reference value :  4.20124e-06
 Reference value :  4.25013e-06
 Reference value :  4.25020e-06
 Reference value :  4.25026e-06
 Reference value :  4.25070e-06
 Reference value :  4.25203e-06
 Reference value :  4.25324e-06
 Reference value :  4.25375e-06
 Reference value :  4.25502e-06
 Reference value :  4.25647e-06
 Reference value :  4.25966e-06
 Reference value :  4.27250e-06
 Reference value :  4.36571e-06
 Reference value :  4.50000e-06
 Reference value :  4.50003e-06
 Reference value :  4.50010e-06
 Reference value :  4.50012e-06
 Reference value :  4.50022e-06
 Reference value :  4.50054e-06
 Reference value :  4.50119e-06
 Reference value :  4.50204e-06
 Reference value :  4.50300e-06
 Reference value :  4.50356e-06
 Reference value :  4.50490e-06
 Reference value :  4.50625e-06
 Reference value :  4.50795e-06
 Reference value :  4.50986e-06
 Reference value :  4.51451e-06
 Reference value :  4.54037e-06
 Reference value :  4.73950e-06
 Reference value :  4.75013e-06
 Reference value :  4.75021e-06
 Reference value :  4.75032e-06
 Reference value :  4.75109e-06
 Reference value :  4.75203e-06
 Reference value :  4.75377e-06
 Reference value :  4.75490e-06
 Reference value :  4.75623e-06
 Reference value :  4.75786e-06
 Reference value :  4.76042e-06
 Reference value :  4.76477e-06
 Reference value :  4.78466e-06
 Reference value :  4.90782e-06
 Reference value :  5.00007e-06
 Reference value :  5.00012e-06
 Reference value :  5.00035e-06
 Reference value :  5.00119e-06
 Reference value :  5.00209e-06
 Reference value :  5.00308e-06
 Reference value :  5.00471e-06
 Reference value :  5.00519e-06
 Reference value :  5.00711e-06
 Reference value :  5.00807e-06
 Reference value :  5.01010e-06
 Reference value :  5.01197e-06
 Reference value :  5.01439e-06
 Reference value :  5.01616e-06
 Reference value :  5.01903e-06
 Reference value :  5.02560e-06
 Reference value :  5.03618e-06
 Reference value :  5.04571e-06
 Reference value :  5.05248e-06
 Reference value :  5.08260e-06
 Reference value :  5.13612e-06
 Reference value :  5.25017e-06
 Reference value :  5.25021e-06
 Reference value :  5.25032e-06
 Reference value :  5.25156e-06
 Reference value :  5.25251e-06
 Reference value :  5.25377e-06
 Reference value :  5.25566e-06
 Reference value :  5.26252e-06
 Reference value :  5.31191e-06
 Reference value :  5.50000e-06
 Reference value :  5.50003e-06
 Reference value :  5.50011e-06
 Reference value :  5.50022e-06
 Reference value :  5.50054e-06
 Reference value :  5.50119e-06
 Reference value :  5.50210e-06
 Reference value :  5.50307e-06
 Reference value :  5.50488e-06
 Reference value :  5.50630e-06
 Reference value :  5.50794e-06
 Reference value :  5.50982e-06
 Reference value :  5.51209e-06
 Reference value :  5.57183e-06
 Reference value :  5.75013e-06
 Reference value :  5.75022e-06
 Reference value :  5.75070e-06
 Reference value :  5.75203e-06
 Reference value :  5.75377e-06
 Reference value :  5.75490e-06
 Reference value :  5.75634e-06
 Reference value :  5.76447e-06
 Reference value :  5.84715e-06
 Reference value :  6.00003e-06
 Reference value :  6.00012e-06
 Reference value :  6.00054e-06
 Reference value :  6.00119e-06
 Reference value :  6.00258e-06
 Reference value :  6.00364e-06
 Reference value :  6.00473e-06
 Reference value :  6.00580e-06
 Reference value :  6.01030e-06
 Reference value :  6.01341e-06
 Reference value :  6.01455e-06
 Reference value :  6.01654e-06
 Reference value :  6.01873e-06
 Reference value :  6.02436e-06
 Reference value :  6.03532e-06
 Reference value :  6.06139e-06
 Reference value :  6.07519e-06
 Reference value :  6.10953e-06
 Reference value :  6.18837e-06
 Reference value :  6.25011e-06
 Reference value :  6.25020e-06
 Reference value :  6.25026e-06
 Reference value :  6.25070e-06
 Reference value :  6.25156e-06
 Reference value :  6.25251e-06
 Reference value :  6.25375e-06
 Reference value :  6.25569e-06
 Reference value :  6.26254e-06
 Reference value :  6.36584e-06
 Reference value :  6.50003e-06
 Reference value :  6.50012e-06
 Reference value :  6.50035e-06
 Reference value :  6.50086e-06
 Reference value :  6.50159e-06
 Reference value :  6.50300e-06
 Reference value :  6.50411e-06
 Reference value :  6.50625e-06
 Reference value :  6.50887e-06
 Reference value :  6.51225e-06
 Reference value :  6.62563e-06
 Reference value :  6.75013e-06
 Reference value :  6.75022e-06
 Reference value :  6.75109e-06
 Reference value :  6.75203e-06
 Reference value :  6.75324e-06
 Reference value :  6.75436e-06
 Reference value :  6.75548e-06
 Reference value :  6.75704e-06
 Reference value :  6.75889e-06
 Reference value :  6.76474e-06
 Reference value :  6.78445e-06
 Reference value :  6.90465e-06
 Reference value :  7.00003e-06
 Reference value :  7.00011e-06
 Reference value :  7.00022e-06
 Reference value :  7.00086e-06
 Reference value :  7.00163e-06
 Reference value :  7.00308e-06
 Reference value :  7.00419e-06
 Reference value :  7.00519e-06
 Reference value :  7.00711e-06
 Reference value :  7.00921e-06
 Reference value :  7.01010e-06
 Reference value :  7.01197e-06
 Reference value :  7.01369e-06
 Reference value :  7.01620e-06
 Reference value :  7.01810e-06
 Reference value :  7.02584e-06
 Reference value :  7.06843e-06
 Reference value :  7.11109e-06
 Reference value :  7.13802e-06
 Reference value :  7.17311e-06
 Reference value :  7.23136e-06
 Reference value :  7.25011e-06
 Reference value :  7.25017e-06
 Reference value :  7.25022e-06
 Reference value :  7.25045e-06
 Reference value :  7.25109e-06
 Reference value :  7.25202e-06
 Reference value :  7.25323e-06
 Reference value :  7.25377e-06
 Reference value :  7.25501e-06
 Reference value :  7.25802e-06
 Reference value :  7.27236e-06
 Reference value :  7.46938e-06
 Reference value :  7.50007e-06
 Reference value :  7.50012e-06
 Reference value :  7.50035e-06
 Reference value :  7.50086e-06
 Reference value :  7.50163e-06
 Reference value :  7.50307e-06
 Reference value :  7.50418e-06
 Reference value :  7.50568e-06
 Reference value :  7.50630e-06
 Reference value :  7.50794e-06
 Reference value :  7.50982e-06
 Reference value :  7.51210e-06
 Reference value :  7.52650e-06
 Reference value :  7.63194e-06
 Reference value :  7.75011e-06
 Reference value :  7.75017e-06
 Reference value :  7.75021e-06
 Reference value :  7.75032e-06
 Reference value :  7.75070e-06
 Reference value :  7.75156e-06
 Reference value :  7.75202e-06
 Reference value :  7.75323e-06
 Reference value :  7.75376e-06
 Reference value :  7.75490e-06
 Reference value :  7.75633e-06
 Reference value :  7.76123e-06
 Reference value :  7.80269e-06
 Reference value :  8.00000e-06
 Reference value :  8.00003e-06
 Reference value :  8.00011e-06
 Reference value :  8.00022e-06
 Reference value :  8.00054e-06
 Reference value :  8.00119e-06
 Reference value :  8.00163e-06
 Reference value :  8.00258e-06
 Reference value :  8.00307e-06
 Reference value :  8.00420e-06
 Reference value :  8.00526e-06
 Reference value :  8.00653e-06
 Reference value :  8.00818e-06
 Reference value :  8.01006e-06
 Reference value :  8.01782e-06
 Reference value :  8.04102e-06
 Reference value :  8.13382e-06
 Reference value :  8.25011e-06
 Reference value :  8.25017e-06
 Reference value :  8.25021e-06
 Reference value :  8.25026e-06
 Reference value :  8.25045e-06
 Reference value :  8.25109e-06
 Reference value :  8.25202e-06
 Reference value :  8.25323e-06
 Reference value :  8.25392e-06
 Reference value :  8.25575e-06
 Reference value :  8.25837e-06
 Reference value :  8.26681e-06
 Reference value :  8.31910e-06
 Reference value :  8.50000e-06
 Reference value :  8.50000e-06
 Reference value :  8.50000e-06
 Reference value :  8.50001e-06
 Reference value :  8.50008e-06
 Reference value :  8.50011e-06
 Reference value :  8.50018e-06
 Reference value :  8.50073e-06
 Reference value :  8.50204e-06
 Reference value :  8.50306e-06
 Reference value :  8.50359e-06
 Reference value :  8.50463e-06
 Reference value :  8.50582e-06
 Reference value :  8.50954e-06
 Reference value :  8.52285e-06
 Reference value :  8.52901e-06
 Reference value :  8.53329e-06
 Reference value :  8.53923e-06
 Reference value :  8.54350e-06
 Reference value :  8.55268e-06
 Reference value :  8.56590e-06
 Reference value :  8.60219e-06
 Reference value :  8.69627e-06
 Reference value :  8.75011e-06
 Reference value :  8.75020e-06
 Reference value :  8.75032e-06
 Reference value :  8.75109e-06
 Reference value :  8.75251e-06
 Reference value :  8.75376e-06
 Reference value :  8.75562e-06
 Reference value :  8.76243e-06
 Reference value :  8.81049e-06
 Reference value :  8.88120e-06
 Reference value :  8.92482e-06
 Reference value :  8.97021e-06
 Reference value :  9.00003e-06
 Reference value :  9.00012e-06
 Reference value :  9.00054e-06
 Reference value :  9.00119e-06
 Reference value :  9.00204e-06
 Reference value :  9.00300e-06
 Reference value :  9.00486e-06
 Reference value :  9.00863e-06
 Reference value :  9.00988e-06
 Reference value :  9.01263e-06
 Reference value :  9.01791e-06
 Reference value :  9.04808e-06
 Reference value :  9.20515e-06
 Reference value :  9.25011e-06
 Reference value :  9.25017e-06
 Reference value :  9.25021e-06
 Reference value :  9.25026e-06
 Reference value :  9.25045e-06
 Reference value :  9.25109e-06
 Reference value :  9.25203e-06
 Reference value :  9.25323e-06
 Reference value :  9.25375e-06
 Reference value :  9.25488e-06
 Reference value :  9.25620e-06
 Reference value :  9.25757e-06
 Reference value :  9.25940e-06
 Reference value :  9.26943e-06
 Reference value :  9.34211e-06
 Reference value :  9.50001e-06
 Reference value :  9.50011e-06
 Reference value :  9.50022e-06
 Reference value :  9.50086e-06
 Reference value :  9.50163e-06
 Reference value :  9.50308e-06
 Reference value :  9.50419e-06
 Reference value :  9.50520e-06
 Reference value :  9.50641e-06
 Reference value :  9.50808e-06
 Reference value :  9.51011e-06
 Reference value :  9.51199e-06
 Reference value :  9.51371e-06
 Reference value :  9.51532e-06
 Reference value :  9.51818e-06
 Reference value :  9.52601e-06
 Reference value :  9.64722e-06
 Reference value :  9.75013e-06
 Reference value :  9.75022e-06
 Reference value :  9.75070e-06
 Reference value :  9.75251e-06
 Reference value :  9.75375e-06
 Reference value :  9.75563e-06
 Reference value :  9.76559e-06
 Reference value :  9.79623e-06
 Reference value :  9.80574e-06
 Reference value :  9.81497e-06
 Reference value :  9.83365e-06
 Reference value :  9.91018e-06
 Reference value :  1.00001e-05
 Reference value :  1.00002e-05
 Reference value :  1.00009e-05
 Reference value :  1.00021e-05
 Reference value :  1.00036e-05
 Reference value :  1.00057e-05
 Reference value :  1.00070e-05
 Reference value :  1.00089e-05
 Reference value :  1.00121e-05
 Reference value :  1.00716e-05
 Reference value :  1.02502e-05
 Reference value :  1.02503e-05
 Reference value :  1.02516e-05
 Reference value :  1.02538e-05
 Reference value :  1.02555e-05
 Reference value :  1.02645e-05
 Reference value :  1.04351e-05
 Reference value :  1.05001e-05
 Reference value :  1.05003e-05
 Reference value :  1.05012e-05
 Reference value :  1.05031e-05
 Reference value :  1.05052e-05
 Reference value :  1.05073e-05
 Reference value :  1.05103e-05
 Reference value :  1.05134e-05
 Reference value :  1.05156e-05
 Reference value :  1.05176e-05
 Reference value :  1.05199e-05
 Reference value :  1.05295e-05
 Reference value :  1.05502e-05
 Reference value :  1.05641e-05
 Reference value :  1.05737e-05
 Reference value :  1.05815e-05
 Reference value :  1.05879e-05
 Reference value :  1.06006e-05
 Reference value :  1.06232e-05
 Reference value :  1.07384e-05
 Reference value :  1.07501e-05
 Reference value :  1.07502e-05
 Reference value :  1.07503e-05
 Reference value :  1.07507e-05
 Reference value :  1.07516e-05
 Reference value :  1.07520e-05
 Reference value :  1.07532e-05
 Reference value :  1.07537e-05
 Reference value :  1.07550e-05
 Reference value :  1.07580e-05
 Reference value :  1.07659e-05
 Reference value :  1.08126e-05
 Reference value :  1.10000e-05
 Reference value :  1.10001e-05
 Reference value :  1.10001e-05
 Reference value :  1.10002e-05
 Reference value :  1.10009e-05
 Reference value :  1.10016e-05
 Reference value :  1.10025e-05
 Reference value :  1.10036e-05
 Reference value :  1.10056e-05
 Reference value :  1.10079e-05
 Reference value :  1.10122e-05
 Reference value :  1.10404e-05
 Reference value :  1.12501e-05
 Reference value :  1.12502e-05
 Reference value :  1.12503e-05
 Reference value :  1.12516e-05
 Reference value :  1.12525e-05
 Reference value :  1.12538e-05
 Reference value :  1.12549e-05
 Reference value :  1.12562e-05
 Reference value :  1.12579e-05
 Reference value :  1.12621e-05
 Reference value :  1.12844e-05
 Reference value :  1.15000e-05
 Reference value :  1.15001e-05
 Reference value :  1.15001e-05
 Reference value :  1.15005e-05
 Reference value :  1.15012e-05
 Reference value :  1.15021e-05
 Reference value :  1.15031e-05
 Reference value :  1.15042e-05
 Reference value :  1.15052e-05
 Reference value :  1.15071e-05
 Reference value :  1.15092e-05
 Reference value :  1.15110e-05
 Reference value :  1.15120e-05
 Reference value :  1.15137e-05
 Reference value :  1.15153e-05
 Reference value :  1.15171e-05
 Reference value :  1.15181e-05
 Reference value :  1.15226e-05
 Reference value :  1.15304e-05
 Reference value :  1.15561e-05
 Reference value :  1.15987e-05
 Reference value :  1.16141e-05
 Reference value :  1.16292e-05
 Reference value :  1.16656e-05
 Reference value :  1.17494e-05
 Reference value :  1.17501e-05
 Reference value :  1.17502e-05
 Reference value :  1.17507e-05
 Reference value :  1.17520e-05
 Reference value :  1.17532e-05
 Reference value :  1.17538e-05
 Reference value :  1.17550e-05
 Reference value :  1.17596e-05
 Reference value :  1.17855e-05
 Reference value :  1.19691e-05
 Reference value :  1.20000e-05
 Reference value :  1.20001e-05
 Reference value :  1.20003e-05
 Reference value :  1.20009e-05
 Reference value :  1.20016e-05
 Reference value :  1.20021e-05
 Reference value :  1.20031e-05
 Reference value :  1.20042e-05
 Reference value :  1.20063e-05
 Reference value :  1.20079e-05
 Reference value :  1.20109e-05
 Reference value :  1.20265e-05
 Reference value :  1.22501e-05
 Reference value :  1.22502e-05
 Reference value :  1.22503e-05
 Reference value :  1.22511e-05
 Reference value :  1.22520e-05
 Reference value :  1.22538e-05
 Reference value :  1.22555e-05
 Reference value :  1.22572e-05
 Reference value :  1.22700e-05
 Reference value :  1.24354e-05
 Reference value :  1.25001e-05
 Reference value :  1.25002e-05
 Reference value :  1.25009e-05
 Reference value :  1.25021e-05
 Reference value :  1.25031e-05
 Reference value :  1.25047e-05
 Reference value :  1.25058e-05
 Reference value :  1.25087e-05
 Reference value :  1.25103e-05
 Reference value :  1.25119e-05
 Reference value :  1.25145e-05
 Reference value :  1.25165e-05
 Reference value :  1.25187e-05
 Reference value :  1.25244e-05
 Reference value :  1.25351e-05
 Reference value :  1.25460e-05
 Reference value :  1.25554e-05
 Reference value :  1.25684e-05
 Reference value :  1.25932e-05
 Reference value :  1.27501e-05
 Reference value :  1.27502e-05
 Reference value :  1.27503e-05
 Reference value :  1.27511e-05
 Reference value :  1.27520e-05
 Reference value :  1.27532e-05
 Reference value :  1.27537e-05
 Reference value :  1.27550e-05
 Reference value :  1.27565e-05
 Reference value :  1.27625e-05
 Reference value :  1.28125e-05
 Reference value :  1.30000e-05
 Reference value :  1.30001e-05
 Reference value :  1.30001e-05
 Reference value :  1.30002e-05
 Reference value :  1.30003e-05
 Reference value :  1.30009e-05
 Reference value :  1.30016e-05
 Reference value :  1.30025e-05
 Reference value :  1.30036e-05
 Reference value :  1.30049e-05
 Reference value :  1.30062e-05
 Reference value :  1.30080e-05
 Reference value :  1.30111e-05
 Reference value :  1.30262e-05
 Reference value :  1.31256e-05
 Reference value :  1.32501e-05
 Reference value :  1.32502e-05
 Reference value :  1.32503e-05
 Reference value :  1.32511e-05
 Reference value :  1.32520e-05
 Reference value :  1.32538e-05
 Reference value :  1.32555e-05
 Reference value :  1.32579e-05
 Reference value :  1.32647e-05
 Reference value :  1.33361e-05
 Reference value :  1.35001e-05
 Reference value :  1.35002e-05
 Reference value :  1.35009e-05
 Reference value :  1.35026e-05
 Reference value :  1.35042e-05
 Reference value :  1.35052e-05
 Reference value :  1.35071e-05
 Reference value :  1.35101e-05
 Reference value :  1.35120e-05
 Reference value :  1.35137e-05
 Reference value :  1.35153e-05
 Reference value :  1.35181e-05
 Reference value :  1.35256e-05
 Reference value :  1.35355e-05
 Reference value :  1.35448e-05
 Reference value :  1.35511e-05
 Reference value :  1.35779e-05
 Reference value :  1.36544e-05
 Reference value :  1.37501e-05
 Reference value :  1.37502e-05
 Reference value :  1.37503e-05
 Reference value :  1.37511e-05
 Reference value :  1.37520e-05
 Reference value :  1.37538e-05
 Reference value :  1.37557e-05
 Reference value :  1.37625e-05
 Reference value :  1.38117e-05
 Reference value :  1.40000e-05
 Reference value :  1.40000e-05
 Reference value :  1.40001e-05
 Reference value :  1.40002e-05
 Reference value :  1.40009e-05
 Reference value :  1.40016e-05
 Reference value :  1.40031e-05
 Reference value :  1.40049e-05
 Reference value :  1.40063e-05
 Reference value :  1.40079e-05
 Reference value :  1.40098e-05
 Reference value :  1.40121e-05
 Reference value :  1.40265e-05
 Reference value :  1.41319e-05
 Reference value :  1.42501e-05
 Reference value :  1.42502e-05
 Reference value :  1.42504e-05
 Reference value :  1.42516e-05
 Reference value :  1.42525e-05
 Reference value :  1.42538e-05
 Reference value :  1.42549e-05
 Reference value :  1.42563e-05
 Reference value :  1.42612e-05
 Reference value :  1.42810e-05
 Reference value :  1.44354e-05
 Reference value :  1.45000e-05
 Reference value :  1.45001e-05
 Reference value :  1.45001e-05
 Reference value :  1.45002e-05
 Reference value :  1.45009e-05
 Reference value :  1.45016e-05
 Reference value :  1.45026e-05
 Reference value :  1.45031e-05
 Reference value :  1.45042e-05
 Reference value :  1.45052e-05
 Reference value :  1.45065e-05
 Reference value :  1.45087e-05
 Reference value :  1.45103e-05
 Reference value :  1.45134e-05
 Reference value :  1.45156e-05
 Reference value :  1.45176e-05
 Reference value :  1.45199e-05
 Reference value :  1.45293e-05
 Reference value :  1.45443e-05
 Reference value :  1.45655e-05
 Reference value :  1.45883e-05
 Reference value :  1.46111e-05
 Reference value :  1.46668e-05
 Reference value :  1.47501e-05
 Reference value :  1.47501e-05
 Reference value :  1.47502e-05
 Reference value :  1.47504e-05
 Reference value :  1.47516e-05
 Reference value :  1.47525e-05
 Reference value :  1.47537e-05
 Reference value :  1.47550e-05
 Reference value :  1.47580e-05
 Reference value :  1.47659e-05
 Reference value :  1.48126e-05
 Reference value :  1.50000e-05
 Reference value :  1.50000e-05
 Reference value :  1.50001e-05
 Reference value :  1.50002e-05
 Reference value :  1.50009e-05
 Reference value :  1.50016e-05
 Reference value :  1.50025e-05
 Reference value :  1.50030e-05
 Reference value :  1.50041e-05
 Reference value :  1.50056e-05
 Reference value :  1.50062e-05
 Reference value :  1.50080e-05
 Reference value :  1.50099e-05
 Reference value :  1.50122e-05
 Reference value :  1.50191e-05
 Reference value :  1.50404e-05
 Reference value :  1.51256e-05
 Reference value :  1.52501e-05
 Reference value :  1.52502e-05
 Reference value :  1.52503e-05
 Reference value :  1.52511e-05
 Reference value :  1.52520e-05
 Reference value :  1.52532e-05
 Reference value :  1.52544e-05
 Reference value :  1.52555e-05
 Reference value :  1.52562e-05
 Reference value :  1.52589e-05
 Reference value :  1.52679e-05
 Reference value :  1.53360e-05
 Reference value :  1.55015e-05
 Reference value :  1.55046e-05
 Reference value :  1.55062e-05
 Reference value :  1.55090e-05
 Reference value :  1.55113e-05
 Reference value :  1.55123e-05
 Reference value :  1.55143e-05
 Reference value :  1.55161e-05
 Reference value :  1.55190e-05
 Reference value :  1.55334e-05
 Reference value :  1.55553e-05
 Reference value :  1.55749e-05
 Reference value :  1.56103e-05
 Reference value :  1.57501e-05
 Reference value :  1.57502e-05
 Reference value :  1.57504e-05
 Reference value :  1.57520e-05
 Reference value :  1.57537e-05
 Reference value :  1.57549e-05
 Reference value :  1.57564e-05
 Reference value :  1.57593e-05
 Reference value :  1.57713e-05
 Reference value :  1.58592e-05
 Reference value :  1.60000e-05
 Reference value :  1.60001e-05
 Reference value :  1.60001e-05
 Reference value :  1.60002e-05
 Reference value :  1.60003e-05
 Reference value :  1.60009e-05
 Reference value :  1.60016e-05
 Reference value :  1.60031e-05
 Reference value :  1.60049e-05
 Reference value :  1.60063e-05
 Reference value :  1.60089e-05
 Reference value :  1.60144e-05
 Reference value :  1.61318e-05
 Reference value :  1.62502e-05
 Reference value :  1.62503e-05
 Reference value :  1.62511e-05
 Reference value :  1.62520e-05
 Reference value :  1.62532e-05
 Reference value :  1.62538e-05
 Reference value :  1.62549e-05
 Reference value :  1.62563e-05
 Reference value :  1.62644e-05
 Reference value :  1.63463e-05
 Reference value :  1.65000e-05
 Reference value :  1.65001e-05
 Reference value :  1.65003e-05
 Reference value :  1.65009e-05
 Reference value :  1.65016e-05
 Reference value :  1.65031e-05
 Reference value :  1.65047e-05
 Reference value :  1.65058e-05
 Reference value :  1.65082e-05
 Reference value :  1.65101e-05
 Reference value :  1.65255e-05
 Reference value :  1.67501e-05
 Reference value :  1.67502e-05
 Reference value :  1.67507e-05
 Reference value :  1.67520e-05
 Reference value :  1.67539e-05
 Reference value :  1.67584e-05
 Reference value :  1.67892e-05
 Reference value :  1.70000e-05
 Reference value :  1.70000e-05
 Reference value :  1.70000e-05
 Reference value :  1.70001e-05
 Reference value :  1.70004e-05
 Reference value :  1.70020e-05
 Reference value :  1.70036e-05
 Reference value :  1.70046e-05
 Reference value :  1.70058e-05
 Reference value :  1.70079e-05
 Reference value :  1.70169e-05
 Reference value :  1.70229e-05
 Reference value :  1.70290e-05
 Reference value :  1.70333e-05
 Reference value :  1.70392e-05
 Reference value :  1.70435e-05
 Reference value :  1.70488e-05
 Reference value :  1.70554e-05
 Reference value :  1.70704e-05
 Reference value :  1.70958e-05
 Reference value :  1.71476e-05
 Reference value :  1.72501e-05
 Reference value :  1.72502e-05
 Reference value :  1.72502e-05
 Reference value :  1.72504e-05
 Reference value :  1.72516e-05
 Reference value :  1.72525e-05
 Reference value :  1.72537e-05
 Reference value :  1.72550e-05
 Reference value :  1.72564e-05
 Reference value :  1.72624e-05
 Reference value :  1.72847e-05
 Reference value :  1.73468e-05
 Reference value :  1.74085e-05
 Reference value :  1.74242e-05
 Reference value :  1.74499e-05
 Reference value :  1.74925e-05
 Reference value :  1.75000e-05
 Reference value :  1.75001e-05
 Reference value :  1.75001e-05
 Reference value :  1.75003e-05
 Reference value :  1.75009e-05
 Reference value :  1.75016e-05
 Reference value :  1.75025e-05
 Reference value :  1.75030e-05
 Reference value :  1.75041e-05
 Reference value :  1.75070e-05
 Reference value :  1.75099e-05
 Reference value :  1.75127e-05
 Reference value :  1.75162e-05
 Reference value :  1.75258e-05
 Reference value :  1.75757e-05
 Reference value :  1.77501e-05
 Reference value :  1.77502e-05
 Reference value :  1.77502e-05
 Reference value :  1.77504e-05
 Reference value :  1.77516e-05
 Reference value :  1.77525e-05
 Reference value :  1.77537e-05
 Reference value :  1.77549e-05
 Reference value :  1.77562e-05
 Reference value :  1.77576e-05
 Reference value :  1.77585e-05
 Reference value :  1.77609e-05
 Reference value :  1.77694e-05
 Reference value :  1.77957e-05
 Reference value :  1.78830e-05
 Reference value :  1.80010e-05
 Reference value :  1.80041e-05
 Reference value :  1.80060e-05
 Reference value :  1.80076e-05
 Reference value :  1.80097e-05
 Reference value :  1.80115e-05
 Reference value :  1.80134e-05
 Reference value :  1.80148e-05
 Reference value :  1.80165e-05
 Reference value :  1.80184e-05
 Reference value :  1.80227e-05
 Reference value :  1.80518e-05
 Reference value :  1.82501e-05
 Reference value :  1.82502e-05
 Reference value :  1.82503e-05
 Reference value :  1.82507e-05
 Reference value :  1.82520e-05
 Reference value :  1.82531e-05
 Reference value :  1.82536e-05
 Reference value :  1.82548e-05
 Reference value :  1.82574e-05
 Reference value :  1.82705e-05
 Reference value :  1.82929e-05
 Reference value :  1.83021e-05
 Reference value :  1.83063e-05
 Reference value :  1.83152e-05
 Reference value :  1.83366e-05
 Reference value :  1.83688e-05
 Reference value :  1.84671e-05
 Reference value :  1.85000e-05
 Reference value :  1.85001e-05
 Reference value :  1.85002e-05
 Reference value :  1.85003e-05
 Reference value :  1.85009e-05
 Reference value :  1.85016e-05
 Reference value :  1.85026e-05
 Reference value :  1.85031e-05
 Reference value :  1.85042e-05
 Reference value :  1.85057e-05
 Reference value :  1.85063e-05
 Reference value :  1.85079e-05
 Reference value :  1.85098e-05
 Reference value :  1.85121e-05
 Reference value :  1.85265e-05
 Reference value :  1.87501e-05
 Reference value :  1.87502e-05
 Reference value :  1.87503e-05
 Reference value :  1.87511e-05
 Reference value :  1.87525e-05
 Reference value :  1.87538e-05
 Reference value :  1.87555e-05
 Reference value :  1.87590e-05
 Reference value :  1.88028e-05
 Reference value :  1.90000e-05
 Reference value :  1.90001e-05
 Reference value :  1.90003e-05
 Reference value :  1.90016e-05
 Reference value :  1.90031e-05
 Reference value :  1.90052e-05
 Reference value :  1.90073e-05
 Reference value :  1.90103e-05
 Reference value :  1.90134e-05
 Reference value :  1.90156e-05
 Reference value :  1.90176e-05
 Reference value :  1.90219e-05
 Reference value :  1.90394e-05
 Reference value :  1.90510e-05
 Reference value :  1.90652e-05
 Reference value :  1.90751e-05
 Reference value :  1.90830e-05
 Reference value :  1.90895e-05
 Reference value :  1.91016e-05
 Reference value :  1.91393e-05
 Reference value :  1.92355e-05
 Reference value :  1.92501e-05
 Reference value :  1.92502e-05
 Reference value :  1.92503e-05
 Reference value :  1.92507e-05
 Reference value :  1.92520e-05
 Reference value :  1.92532e-05
 Reference value :  1.92537e-05
 Reference value :  1.92557e-05
 Reference value :  1.92626e-05
 Reference value :  1.92859e-05
 Reference value :  1.94727e-05
 Reference value :  1.95005e-05
 Reference value :  1.95019e-05
 Reference value :  1.95030e-05
 Reference value :  1.95041e-05
 Reference value :  1.95057e-05
 Reference value :  1.95063e-05
 Reference value :  1.95080e-05
 Reference value :  1.95098e-05
 Reference value :  1.95109e-05
 Reference value :  1.95190e-05
 Reference value :  1.95719e-05
 Reference value :  1.97501e-05
 Reference value :  1.97502e-05
 Reference value :  1.97503e-05
 Reference value :  1.97511e-05
 Reference value :  1.97520e-05
 Reference value :  1.97532e-05
 Reference value :  1.97538e-05
 Reference value :  1.97549e-05
 Reference value :  1.97562e-05
 Reference value :  1.97579e-05
 Reference value :  1.97621e-05
 Reference value :  1.97847e-05
 Reference value :  2.00000e-05
 Reference value :  2.00001e-05
 Reference value :  2.00001e-05
 Reference value :  2.00003e-05
 Reference value :  2.00009e-05
 Reference value :  2.00016e-05
 Reference value :  2.00031e-05
 Reference value :  2.00042e-05
 Reference value :  2.00052e-05
 Reference value :  2.00064e-05
 Reference value :  2.00081e-05
 Reference value :  2.00101e-05
 Reference value :  2.00120e-05
 Reference value :  2.00137e-05
 Reference value :  2.00153e-05
 Reference value :  2.00171e-05
 Reference value :  2.00181e-05
 Reference value :  2.00208e-05
 Reference value :  2.00256e-05
 Reference value :  2.00361e-05
 Reference value :  2.00565e-05
 Reference value :  2.00724e-05
 Reference value :  2.01003e-05
 Reference value :  2.01095e-05
 Reference value :  2.01298e-05
 Reference value :  2.01664e-05
 Reference value :  2.02501e-05
 Reference value :  2.02502e-05
 Reference value :  2.02502e-05
 Reference value :  2.02504e-05
 Reference value :  2.02520e-05
 Reference value :  2.02532e-05
 Reference value :  2.02544e-05
 Reference value :  2.02557e-05
 Reference value :  2.02625e-05
 Reference value :  2.03117e-05
 Reference value :  2.05005e-05
 Reference value :  2.05021e-05
 Reference value :  2.05031e-05
 Reference value :  2.05049e-05
 Reference value :  2.05066e-05
 Reference value :  2.05084e-05
 Reference value :  2.05104e-05
 Reference value :  2.05129e-05
 Reference value :  2.05249e-05
 Reference value :  2.05868e-05
 Reference value :  2.07501e-05
 Reference value :  2.07502e-05
 Reference value :  2.07502e-05
 Reference value :  2.07503e-05
 Reference value :  2.07507e-05
 Reference value :  2.07516e-05
 Reference value :  2.07520e-05
 Reference value :  2.07532e-05
 Reference value :  2.07538e-05
 Reference value :  2.07544e-05
 Reference value :  2.07549e-05
 Reference value :  2.07563e-05
 Reference value :  2.07644e-05
 Reference value :  2.09339e-05
 Reference value :  2.10001e-05
 Reference value :  2.10002e-05
 Reference value :  2.10009e-05
 Reference value :  2.10016e-05
 Reference value :  2.10031e-05
 Reference value :  2.10047e-05
 Reference value :  2.10065e-05
 Reference value :  2.10103e-05
 Reference value :  2.10134e-05
 Reference value :  2.10156e-05
 Reference value :  2.10175e-05
 Reference value :  2.10198e-05
 Reference value :  2.10351e-05
 Reference value :  2.10464e-05
 Reference value :  2.10601e-05
 Reference value :  2.10752e-05
 Reference value :  2.11087e-05
 Reference value :  2.12501e-05
 Reference value :  2.12502e-05
 Reference value :  2.12503e-05
 Reference value :  2.12511e-05
 Reference value :  2.12520e-05
 Reference value :  2.12537e-05
 Reference value :  2.12557e-05
 Reference value :  2.12597e-05
 Reference value :  2.13125e-05
 Reference value :  2.15000e-05
 Reference value :  2.15001e-05
 Reference value :  2.15002e-05
 Reference value :  2.15009e-05
 Reference value :  2.15020e-05
 Reference value :  2.15030e-05
 Reference value :  2.15049e-05
 Reference value :  2.15062e-05
 Reference value :  2.15089e-05
 Reference value :  2.15145e-05
 Reference value :  2.16256e-05
 Reference value :  2.17501e-05
 Reference value :  2.17502e-05
 Reference value :  2.17507e-05
 Reference value :  2.17520e-05
 Reference value :  2.17532e-05
 Reference value :  2.17544e-05
 Reference value :  2.17555e-05
 Reference value :  2.17570e-05
 Reference value :  2.17604e-05
 Reference value :  2.17845e-05
 Reference value :  2.20015e-05
 Reference value :  2.20046e-05
 Reference value :  2.20061e-05
 Reference value :  2.20090e-05
 Reference value :  2.20113e-05
 Reference value :  2.20123e-05
 Reference value :  2.20151e-05
 Reference value :  2.20192e-05
 Reference value :  2.20289e-05
 Reference value :  2.20389e-05
 Reference value :  2.20466e-05
 Reference value :  2.20524e-05
 Reference value :  2.21001e-05
 Reference value :  2.22501e-05
 Reference value :  2.22502e-05
 Reference value :  2.22503e-05
 Reference value :  2.22507e-05
 Reference value :  2.22516e-05
 Reference value :  2.22520e-05
 Reference value :  2.22532e-05
 Reference value :  2.22537e-05
 Reference value :  2.22549e-05
 Reference value :  2.22564e-05
 Reference value :  2.22593e-05
 Reference value :  2.22713e-05
 Reference value :  2.23089e-05
 Reference value :  2.25000e-05
 Reference value :  2.25000e-05
 Reference value :  2.25001e-05
 Reference value :  2.25001e-05
 Reference value :  2.25002e-05
 Reference value :  2.25009e-05
 Reference value :  2.25016e-05
 Reference value :  2.25026e-05
 Reference value :  2.25036e-05
 Reference value :  2.25057e-05
 Reference value :  2.25070e-05
 Reference value :  2.25089e-05
 Reference value :  2.25109e-05
 Reference value :  2.25265e-05
 Reference value :  2.27501e-05
 Reference value :  2.27502e-05
 Reference value :  2.27504e-05
 Reference value :  2.27520e-05
 Reference value :  2.27538e-05
 Reference value :  2.27549e-05
 Reference value :  2.27563e-05
 Reference value :  2.27612e-05
 Reference value :  2.28029e-05
 Reference value :  2.30000e-05
 Reference value :  2.30012e-05
 Reference value :  2.30035e-05
 Reference value :  2.30047e-05
 Reference value :  2.30068e-05
 Reference value :  2.30090e-05
 Reference value :  2.30118e-05
 Reference value :  2.30141e-05
 Reference value :  2.30164e-05
 Reference value :  2.30185e-05
 Reference value :  2.30211e-05
 Reference value :  2.30306e-05
 Reference value :  2.30465e-05
 Reference value :  2.30912e-05
 Reference value :  2.31211e-05
 Reference value :  2.31514e-05
 Reference value :  2.32172e-05
 Reference value :  2.32501e-05
 Reference value :  2.32502e-05
 Reference value :  2.32502e-05
 Reference value :  2.32503e-05
 Reference value :  2.32504e-05
 Reference value :  2.32511e-05
 Reference value :  2.32520e-05
 Reference value :  2.32531e-05
 Reference value :  2.32536e-05
 Reference value :  2.32548e-05
 Reference value :  2.32562e-05
 Reference value :  2.32589e-05
 Reference value :  2.32701e-05
 Reference value :  2.33407e-05
 Reference value :  2.35000e-05
 Reference value :  2.35000e-05
 Reference value :  2.35001e-05
 Reference value :  2.35001e-05
 Reference value :  2.35002e-05
 Reference value :  2.35005e-05
 Reference value :  2.35009e-05
 Reference value :  2.35016e-05
 Reference value :  2.35025e-05
 Reference value :  2.35030e-05
 Reference value :  2.35041e-05
 Reference value :  2.35056e-05
 Reference value :  2.35062e-05
 Reference value :  2.35079e-05
 Reference value :  2.35099e-05
 Reference value :  2.35145e-05
 Reference value :  2.37405e-05
 Reference value :  2.37502e-05
 Reference value :  2.37502e-05
 Reference value :  2.37504e-05
 Reference value :  2.37516e-05
 Reference value :  2.37532e-05
 Reference value :  2.37544e-05
 Reference value :  2.37555e-05
 Reference value :  2.37570e-05
 Reference value :  2.37604e-05
 Reference value :  2.37742e-05
 Reference value :  2.39046e-05
 Reference value :  2.40000e-05
 Reference value :  2.40001e-05
 Reference value :  2.40002e-05
 Reference value :  2.40009e-05
 Reference value :  2.40016e-05
 Reference value :  2.40031e-05
 Reference value :  2.40042e-05
 Reference value :  2.40052e-05
 Reference value :  2.40064e-05
 Reference value :  2.40081e-05
 Reference value :  2.40101e-05
 Reference value :  2.40120e-05
 Reference value :  2.40137e-05
 Reference value :  2.40153e-05
 Reference value :  2.40171e-05
 Reference value :  2.40191e-05
 Reference value :  2.40259e-05
 Reference value :  2.40379e-05
 Reference value :  2.40421e-05
 Reference value :  2.40533e-05
 Reference value :  2.40812e-05
 Reference value :  2.41859e-05
 Reference value :  2.42501e-05
 Reference value :  2.42502e-05
 Reference value :  2.42503e-05
 Reference value :  2.42511e-05
 Reference value :  2.42520e-05
 Reference value :  2.42532e-05
 Reference value :  2.42538e-05
 Reference value :  2.42550e-05
 Reference value :  2.42580e-05
 Reference value :  2.42658e-05
 Reference value :  2.43117e-05
 Reference value :  2.45000e-05
 Reference value :  2.45001e-05
 Reference value :  2.45002e-05
 Reference value :  2.45009e-05
 Reference value :  2.45021e-05
 Reference value :  2.45036e-05
 Reference value :  2.45057e-05
 Reference value :  2.45063e-05
 Reference value :  2.45079e-05
 Reference value :  2.45109e-05
 Reference value :  2.45416e-05
 Reference value :  2.47501e-05
 Reference value :  2.47502e-05
 Reference value :  2.47507e-05
 Reference value :  2.47520e-05
 Reference value :  2.47538e-05
 Reference value :  2.47549e-05
 Reference value :  2.47563e-05
 Reference value :  2.47612e-05
 Reference value :  2.48466e-05
 Reference value :  2.50000e-05
 Reference value :  2.50001e-05
 Reference value :  2.50002e-05
 Reference value :  2.50003e-05
 Reference value :  2.50009e-05
 Reference value :  2.50016e-05
 Reference value :  2.50026e-05
 Reference value :  2.50031e-05
 Reference value :  2.50047e-05
 Reference value :  2.50058e-05
 Reference value :  2.50074e-05
 Reference value :  2.50101e-05
 Reference value :  2.50255e-05
 Reference value :  2.52501e-05
 Reference value :  2.52502e-05
 Reference value :  2.52502e-05
 Reference value :  2.52503e-05
 Reference value :  2.52511e-05
 Reference value :  2.52520e-05
 Reference value :  2.52532e-05
 Reference value :  2.52548e-05
 Reference value :  2.52584e-05
 Reference value :  2.52668e-05
 Reference value :  2.52892e-05
 Reference value :  2.53789e-05
 Reference value :  2.55000e-05
 Reference value :  2.55000e-05
 Reference value :  2.55000e-05
 Reference value :  2.55000e-05
 Reference value :  2.55000e-05
 Reference value :  2.55001e-05
 Reference value :  2.55002e-05
 Reference value :  2.55004e-05
 Reference value :  2.55012e-05
 Reference value :  2.55020e-05
 Reference value :  2.55031e-05
 Reference value :  2.55036e-05
 Reference value :  2.55046e-05
 Reference value :  2.55058e-05
 Reference value :  2.55079e-05
 Reference value :  2.55169e-05
 Reference value :  2.55228e-05
 Reference value :  2.55290e-05
 Reference value :  2.55333e-05
 Reference value :  2.55392e-05
 Reference value :  2.55435e-05
 Reference value :  2.55486e-05
 Reference value :  2.55553e-05
 Reference value :  2.55669e-05
 Reference value :  2.55870e-05
 Reference value :  2.56358e-05
 Reference value :  2.57004e-05
 Reference value :  2.57501e-05
 Reference value :  2.57501e-05
 Reference value :  2.57502e-05
 Reference value :  2.57502e-05
 Reference value :  2.57503e-05
 Reference value :  2.57507e-05
 Reference value :  2.57516e-05
 Reference value :  2.57520e-05
 Reference value :  2.57532e-05
 Reference value :  2.57538e-05
 Reference value :  2.57550e-05
 Reference value :  2.57580e-05
 Reference value :  2.57625e-05
 Reference value :  2.57850e-05
 Reference value :  2.58478e-05
 Reference value :  2.59096e-05
 Reference value :  2.59257e-05
 Reference value :  2.59401e-05
 Reference value :  2.59651e-05
 Reference value :  2.60001e-05
 Reference value :  2.60003e-05
 Reference value :  2.60016e-05
 Reference value :  2.60035e-05
 Reference value :  2.60086e-05
 Reference value :  2.60126e-05
 Reference value :  2.60258e-05
 Reference value :  2.62238e-05
 Reference value :  2.62502e-05
 Reference value :  2.62504e-05
 Reference value :  2.62520e-05
 Reference value :  2.62537e-05
 Reference value :  2.62555e-05
 Reference value :  2.62569e-05
 Reference value :  2.62609e-05
 Reference value :  2.62834e-05
 Reference value :  2.64446e-05
 Reference value :  2.65010e-05
 Reference value :  2.65041e-05
 Reference value :  2.65068e-05
 Reference value :  2.65097e-05
 Reference value :  2.65115e-05
 Reference value :  2.65123e-05
 Reference value :  2.65141e-05
 Reference value :  2.65166e-05
 Reference value :  2.65195e-05
 Reference value :  2.65307e-05
 Reference value :  2.66108e-05
 Reference value :  2.67501e-05
 Reference value :  2.67501e-05
 Reference value :  2.67502e-05
 Reference value :  2.67503e-05
 Reference value :  2.67511e-05
 Reference value :  2.67520e-05
 Reference value :  2.67536e-05
 Reference value :  2.67548e-05
 Reference value :  2.67563e-05
 Reference value :  2.67614e-05
 Reference value :  2.67821e-05
 Reference value :  2.68016e-05
 Reference value :  2.68100e-05
 Reference value :  2.68276e-05
 Reference value :  2.68539e-05
 Reference value :  2.69836e-05
 Reference value :  2.70000e-05
 Reference value :  2.70001e-05
 Reference value :  2.70002e-05
 Reference value :  2.70009e-05
 Reference value :  2.70016e-05
 Reference value :  2.70026e-05
 Reference value :  2.70031e-05
 Reference value :  2.70042e-05
 Reference value :  2.70057e-05
 Reference value :  2.70063e-05
 Reference value :  2.70079e-05
 Reference value :  2.70109e-05
 Reference value :  2.70190e-05
 Reference value :  2.71318e-05
 Reference value :  2.72501e-05
 Reference value :  2.72502e-05
 Reference value :  2.72503e-05
 Reference value :  2.72511e-05
 Reference value :  2.72520e-05
 Reference value :  2.72532e-05
 Reference value :  2.72544e-05
 Reference value :  2.72563e-05
 Reference value :  2.72699e-05
 Reference value :  2.75000e-05
 Reference value :  2.75001e-05
 Reference value :  2.75002e-05
 Reference value :  2.75009e-05
 Reference value :  2.75021e-05
 Reference value :  2.75031e-05
 Reference value :  2.75047e-05
 Reference value :  2.75073e-05
 Reference value :  2.75119e-05
 Reference value :  2.75156e-05
 Reference value :  2.75176e-05
 Reference value :  2.75219e-05
 Reference value :  2.75510e-05
 Reference value :  2.75758e-05
 Reference value :  2.75905e-05
 Reference value :  2.76035e-05
 Reference value :  2.76626e-05
 Reference value :  2.77501e-05
 Reference value :  2.77502e-05
 Reference value :  2.77504e-05
 Reference value :  2.77520e-05
 Reference value :  2.77537e-05
 Reference value :  2.77557e-05
 Reference value :  2.77626e-05
 Reference value :  2.78126e-05
 Reference value :  2.80005e-05
 Reference value :  2.80019e-05
 Reference value :  2.80030e-05
 Reference value :  2.80049e-05
 Reference value :  2.80063e-05
 Reference value :  2.80080e-05
 Reference value :  2.80109e-05
 Reference value :  2.80719e-05
 Reference value :  2.82502e-05
 Reference value :  2.82503e-05
 Reference value :  2.82516e-05
 Reference value :  2.82532e-05
 Reference value :  2.82549e-05
 Reference value :  2.82570e-05
 Reference value :  2.82621e-05
 Reference value :  2.83377e-05
 Reference value :  2.85001e-05
 Reference value :  2.85002e-05
 Reference value :  2.85009e-05
 Reference value :  2.85021e-05
 Reference value :  2.85031e-05
 Reference value :  2.85052e-05
 Reference value :  2.85081e-05
 Reference value :  2.85110e-05
 Reference value :  2.85130e-05
 Reference value :  2.85144e-05
 Reference value :  2.85162e-05
 Reference value :  2.85191e-05
 Reference value :  2.85315e-05
 Reference value :  2.85751e-05
 Reference value :  2.86066e-05
 Reference value :  2.86150e-05
 Reference value :  2.86310e-05
 Reference value :  2.86759e-05
 Reference value :  2.87502e-05
 Reference value :  2.87504e-05
 Reference value :  2.87520e-05
 Reference value :  2.87538e-05
 Reference value :  2.87564e-05
 Reference value :  2.87723e-05
 Reference value :  2.89688e-05
 Reference value :  2.90005e-05
 Reference value :  2.90021e-05
 Reference value :  2.90032e-05
 Reference value :  2.90050e-05
 Reference value :  2.90067e-05
 Reference value :  2.90085e-05
 Reference value :  2.90105e-05
 Reference value :  2.90154e-05
 Reference value :  2.90249e-05
 Reference value :  2.90831e-05
 Reference value :  2.92274e-05
 Reference value :  2.92501e-05
 Reference value :  2.92502e-05
 Reference value :  2.92503e-05
 Reference value :  2.92507e-05
 Reference value :  2.92516e-05
 Reference value :  2.92525e-05
 Reference value :  2.92538e-05
 Reference value :  2.92549e-05
 Reference value :  2.92563e-05
 Reference value :  2.92612e-05
 Reference value :  2.93021e-05
 Reference value :  2.95000e-05
 Reference value :  2.95000e-05
 Reference value :  2.95001e-05
 Reference value :  2.95001e-05
 Reference value :  2.95003e-05
 Reference value :  2.95009e-05
 Reference value :  2.95016e-05
 Reference value :  2.95026e-05
 Reference value :  2.95031e-05
 Reference value :  2.95042e-05
 Reference value :  2.95052e-05
 Reference value :  2.95065e-05
 Reference value :  2.95087e-05
 Reference value :  2.95103e-05
 Reference value :  2.95134e-05
 Reference value :  2.95145e-05
 Reference value :  2.95165e-05
 Reference value :  2.95186e-05
 Reference value :  2.95237e-05
 Reference value :  2.95337e-05
 Reference value :  2.95458e-05
 Reference value :  2.95564e-05
 Reference value :  2.95712e-05
 Reference value :  2.96138e-05
 Reference value :  2.97501e-05
 Reference value :  2.97502e-05
 Reference value :  2.97503e-05
 Reference value :  2.97516e-05
 Reference value :  2.97532e-05
 Reference value :  2.97550e-05
 Reference value :  2.97597e-05
 Reference value :  2.98126e-05
 Reference value :  3.00000e-05
 Reference value :  3.00001e-05
 Reference value :  3.00009e-05
 Reference value :  3.00020e-05
 Reference value :  3.00036e-05
 Reference value :  3.00062e-05
 Reference value :  3.00099e-05
 Reference value :  3.00403e-05
 Reference value :  3.02501e-05
 Reference value :  3.02502e-05
 Reference value :  3.02503e-05
 Reference value :  3.02511e-05
 Reference value :  3.02520e-05
 Reference value :  3.02532e-05
 Reference value :  3.02544e-05
 Reference value :  3.02555e-05
 Reference value :  3.02570e-05
 Reference value :  3.02621e-05
 Reference value :  3.03017e-05
 Reference value :  3.05015e-05
 Reference value :  3.05046e-05
 Reference value :  3.05061e-05
 Reference value :  3.05090e-05
 Reference value :  3.05123e-05
 Reference value :  3.05151e-05
 Reference value :  3.05182e-05
 Reference value :  3.05204e-05
 Reference value :  3.05282e-05
 Reference value :  3.05370e-05
 Reference value :  3.05412e-05
 Reference value :  3.05501e-05
 Reference value :  3.05858e-05
 Reference value :  3.07501e-05
 Reference value :  3.07502e-05
 Reference value :  3.07502e-05
 Reference value :  3.07504e-05
 Reference value :  3.07516e-05
 Reference value :  3.07520e-05
 Reference value :  3.07532e-05
 Reference value :  3.07543e-05
 Reference value :  3.07555e-05
 Reference value :  3.07619e-05
 Reference value :  3.08089e-05
 Reference value :  3.10000e-05
 Reference value :  3.10001e-05
 Reference value :  3.10003e-05
 Reference value :  3.10012e-05
 Reference value :  3.10021e-05
 Reference value :  3.10036e-05
 Reference value :  3.10057e-05
 Reference value :  3.10063e-05
 Reference value :  3.10079e-05
 Reference value :  3.10109e-05
 Reference value :  3.11318e-05
 Reference value :  3.12502e-05
 Reference value :  3.12507e-05
 Reference value :  3.12525e-05
 Reference value :  3.12544e-05
 Reference value :  3.12563e-05
 Reference value :  3.12645e-05
 Reference value :  3.14348e-05
 Reference value :  3.15001e-05
 Reference value :  3.15003e-05
 Reference value :  3.15012e-05
 Reference value :  3.15026e-05
 Reference value :  3.15047e-05
 Reference value :  3.15073e-05
 Reference value :  3.15119e-05
 Reference value :  3.15145e-05
 Reference value :  3.15165e-05
 Reference value :  3.15199e-05
 Reference value :  3.15365e-05
 Reference value :  3.15983e-05
 Reference value :  3.16949e-05
 Reference value :  3.17501e-05
 Reference value :  3.17503e-05
 Reference value :  3.17511e-05
 Reference value :  3.17532e-05
 Reference value :  3.17550e-05
 Reference value :  3.17626e-05
 Reference value :  3.19729e-05
 Reference value :  3.20001e-05
 Reference value :  3.20003e-05
 Reference value :  3.20012e-05
 Reference value :  3.20025e-05
 Reference value :  3.20041e-05
 Reference value :  3.20063e-05
 Reference value :  3.20089e-05
 Reference value :  3.20190e-05
 Reference value :  3.22501e-05
 Reference value :  3.22502e-05
 Reference value :  3.22511e-05
 Reference value :  3.22532e-05
 Reference value :  3.22549e-05
 Reference value :  3.22570e-05
 Reference value :  3.22604e-05
 Reference value :  3.22845e-05
 Reference value :  3.25000e-05
 Reference value :  3.25001e-05
 Reference value :  3.25002e-05
 Reference value :  3.25009e-05
 Reference value :  3.25016e-05
 Reference value :  3.25031e-05
 Reference value :  3.25047e-05
 Reference value :  3.25057e-05
 Reference value :  3.25081e-05
 Reference value :  3.25101e-05
 Reference value :  3.25120e-05
 Reference value :  3.25137e-05
 Reference value :  3.25163e-05
 Reference value :  3.25182e-05
 Reference value :  3.25204e-05
 Reference value :  3.25280e-05
 Reference value :  3.25741e-05
 Reference value :  3.27501e-05
 Reference value :  3.27502e-05
 Reference value :  3.27507e-05
 Reference value :  3.27520e-05
 Reference value :  3.27538e-05
 Reference value :  3.27557e-05
 Reference value :  3.27625e-05
 Reference value :  3.28118e-05
 Reference value :  3.30000e-05
 Reference value :  3.30001e-05
 Reference value :  3.30002e-05
 Reference value :  3.30005e-05
 Reference value :  3.30012e-05
 Reference value :  3.30021e-05
 Reference value :  3.30031e-05
 Reference value :  3.30042e-05
 Reference value :  3.30057e-05
 Reference value :  3.30063e-05
 Reference value :  3.30079e-05
 Reference value :  3.30121e-05
 Reference value :  3.32501e-05
 Reference value :  3.32502e-05
 Reference value :  3.32503e-05
 Reference value :  3.32516e-05
 Reference value :  3.32525e-05
 Reference value :  3.32538e-05
 Reference value :  3.32549e-05
 Reference value :  3.32563e-05
 Reference value :  3.32590e-05
 Reference value :  3.32699e-05
 Reference value :  3.33028e-05
 Reference value :  3.35000e-05
 Reference value :  3.35011e-05
 Reference value :  3.35044e-05
 Reference value :  3.35063e-05
 Reference value :  3.35083e-05
 Reference value :  3.35116e-05
 Reference value :  3.35187e-05
 Reference value :  3.35518e-05
 Reference value :  3.37501e-05
 Reference value :  3.37502e-05
 Reference value :  3.37503e-05
 Reference value :  3.37511e-05
 Reference value :  3.37525e-05
 Reference value :  3.37547e-05
 Reference value :  3.37598e-05
 Reference value :  3.38473e-05
 Reference value :  3.40000e-05
 Reference value :  3.40000e-05
 Reference value :  3.40001e-05
 Reference value :  3.40001e-05
 Reference value :  3.40007e-05
 Reference value :  3.40020e-05
 Reference value :  3.40036e-05
 Reference value :  3.40046e-05
 Reference value :  3.40065e-05
 Reference value :  3.40169e-05
 Reference value :  3.40228e-05
 Reference value :  3.40290e-05
 Reference value :  3.40369e-05
 Reference value :  3.40435e-05
 Reference value :  3.40637e-05
 Reference value :  3.41550e-05
 Reference value :  3.42502e-05
 Reference value :  3.42504e-05
 Reference value :  3.42520e-05
 Reference value :  3.42538e-05
 Reference value :  3.42556e-05
 Reference value :  3.42625e-05
 Reference value :  3.43107e-05
 Reference value :  3.43830e-05
 Reference value :  3.44111e-05
 Reference value :  3.44415e-05
 Reference value :  3.44802e-05
 Reference value :  3.45000e-05
 Reference value :  3.45001e-05
 Reference value :  3.45002e-05
 Reference value :  3.45005e-05
 Reference value :  3.45012e-05
 Reference value :  3.45025e-05
 Reference value :  3.45041e-05
 Reference value :  3.45070e-05
 Reference value :  3.45099e-05
 Reference value :  3.45127e-05
 Reference value :  3.45258e-05
 Reference value :  3.47501e-05
 Reference value :  3.47502e-05
 Reference value :  3.47503e-05
 Reference value :  3.47516e-05
 Reference value :  3.47525e-05
 Reference value :  3.47537e-05
 Reference value :  3.47555e-05
 Reference value :  3.47569e-05
 Reference value :  3.47594e-05
 Reference value :  3.47750e-05
 Reference value :  3.49445e-05
 Reference value :  3.50001e-05
 Reference value :  3.50002e-05
 Reference value :  3.50009e-05
 Reference value :  3.50016e-05
 Reference value :  3.50026e-05
 Reference value :  3.50036e-05
 Reference value :  3.50052e-05
 Reference value :  3.50071e-05
 Reference value :  3.50092e-05
 Reference value :  3.50101e-05
 Reference value :  3.50119e-05
 Reference value :  3.50136e-05
 Reference value :  3.50152e-05
 Reference value :  3.50170e-05
 Reference value :  3.50189e-05
 Reference value :  3.50250e-05
 Reference value :  3.50723e-05
 Reference value :  3.52501e-05
 Reference value :  3.52501e-05
 Reference value :  3.52502e-05
 Reference value :  3.52503e-05
 Reference value :  3.52511e-05
 Reference value :  3.52520e-05
 Reference value :  3.52532e-05
 Reference value :  3.52538e-05
 Reference value :  3.52550e-05
 Reference value :  3.52564e-05
 Reference value :  3.52595e-05
 Reference value :  3.52720e-05
 Reference value :  3.52804e-05
 Reference value :  3.52887e-05
 Reference value :  3.52965e-05
 Reference value :  3.53005e-05
 Reference value :  3.53088e-05
 Reference value :  3.53292e-05
 Reference value :  3.53463e-05
 Reference value :  3.53959e-05
 Reference value :  3.55000e-05
 Reference value :  3.55001e-05
 Reference value :  3.55001e-05
 Reference value :  3.55002e-05
 Reference value :  3.55005e-05
 Reference value :  3.55009e-05
 Reference value :  3.55016e-05
 Reference value :  3.55026e-05
 Reference value :  3.55036e-05
 Reference value :  3.55057e-05
 Reference value :  3.55063e-05
 Reference value :  3.55079e-05
 Reference value :  3.55098e-05
 Reference value :  3.55121e-05
 Reference value :  3.55265e-05
 Reference value :  3.57501e-05
 Reference value :  3.57502e-05
 Reference value :  3.57503e-05
 Reference value :  3.57507e-05
 Reference value :  3.57520e-05
 Reference value :  3.57532e-05
 Reference value :  3.57538e-05
 Reference value :  3.57549e-05
 Reference value :  3.57563e-05
 Reference value :  3.57590e-05
 Reference value :  3.57699e-05
 Reference value :  3.58469e-05
 Reference value :  3.60000e-05
 Reference value :  3.60011e-05
 Reference value :  3.60044e-05
 Reference value :  3.60063e-05
 Reference value :  3.60113e-05
 Reference value :  3.60140e-05
 Reference value :  3.60161e-05
 Reference value :  3.60181e-05
 Reference value :  3.60225e-05
 Reference value :  3.60705e-05
 Reference value :  3.60885e-05
 Reference value :  3.61012e-05
 Reference value :  3.61435e-05
 Reference value :  3.62501e-05
 Reference value :  3.62503e-05
 Reference value :  3.62516e-05
 Reference value :  3.62525e-05
 Reference value :  3.62536e-05
 Reference value :  3.62548e-05
 Reference value :  3.62573e-05
 Reference value :  3.62643e-05
 Reference value :  3.63401e-05
 Reference value :  3.65000e-05
 Reference value :  3.65001e-05
 Reference value :  3.65002e-05
 Reference value :  3.65005e-05
 Reference value :  3.65012e-05
 Reference value :  3.65020e-05
 Reference value :  3.65030e-05
 Reference value :  3.65041e-05
 Reference value :  3.65056e-05
 Reference value :  3.65062e-05
 Reference value :  3.65089e-05
 Reference value :  3.65111e-05
 Reference value :  3.65261e-05
 Reference value :  3.67389e-05
 Reference value :  3.67501e-05
 Reference value :  3.67502e-05
 Reference value :  3.67503e-05
 Reference value :  3.67511e-05
 Reference value :  3.67520e-05
 Reference value :  3.67538e-05
 Reference value :  3.67555e-05
 Reference value :  3.67562e-05
 Reference value :  3.67579e-05
 Reference value :  3.67604e-05
 Reference value :  3.67679e-05
 Reference value :  3.68016e-05
 Reference value :  3.70000e-05
 Reference value :  3.70001e-05
 Reference value :  3.70001e-05
 Reference value :  3.70003e-05
 Reference value :  3.70009e-05
 Reference value :  3.70016e-05
 Reference value :  3.70026e-05
 Reference value :  3.70036e-05
 Reference value :  3.70047e-05
 Reference value :  3.70057e-05
 Reference value :  3.70071e-05
 Reference value :  3.70092e-05
 Reference value :  3.70101e-05
 Reference value :  3.70120e-05
 Reference value :  3.70137e-05
 Reference value :  3.70153e-05
 Reference value :  3.70171e-05
 Reference value :  3.70191e-05
 Reference value :  3.70316e-05
 Reference value :  3.70778e-05
 Reference value :  3.70924e-05
 Reference value :  3.71097e-05
 Reference value :  3.71264e-05
 Reference value :  3.71624e-05
 Reference value :  3.72501e-05
 Reference value :  3.72502e-05
 Reference value :  3.72503e-05
 Reference value :  3.72511e-05
 Reference value :  3.72520e-05
 Reference value :  3.72538e-05
 Reference value :  3.72550e-05
 Reference value :  3.72564e-05
 Reference value :  3.72596e-05
 Reference value :  3.72723e-05
 Reference value :  3.73642e-05
 Reference value :  3.75000e-05
 Reference value :  3.75001e-05
 Reference value :  3.75002e-05
 Reference value :  3.75005e-05
 Reference value :  3.75012e-05
 Reference value :  3.75021e-05
 Reference value :  3.75031e-05
 Reference value :  3.75042e-05
 Reference value :  3.75057e-05
 Reference value :  3.75063e-05
 Reference value :  3.75079e-05
 Reference value :  3.75098e-05
 Reference value :  3.75121e-05
 Reference value :  3.75265e-05
 Reference value :  3.76319e-05
 Reference value :  3.77501e-05
 Reference value :  3.77502e-05
 Reference value :  3.77502e-05
 Reference value :  3.77503e-05
 Reference value :  3.77507e-05
 Reference value :  3.77516e-05
 Reference value :  3.77525e-05
 Reference value :  3.77538e-05
 Reference value :  3.77549e-05
 Reference value :  3.77563e-05
 Reference value :  3.77612e-05
 Reference value :  3.78031e-05
 Reference value :  3.80000e-05
 Reference value :  3.80001e-05
 Reference value :  3.80002e-05
 Reference value :  3.80005e-05
 Reference value :  3.80012e-05
 Reference value :  3.80026e-05
 Reference value :  3.80036e-05
 Reference value :  3.80052e-05
 Reference value :  3.80073e-05
 Reference value :  3.80103e-05
 Reference value :  3.80134e-05
 Reference value :  3.80145e-05
 Reference value :  3.80165e-05
 Reference value :  3.80186e-05
 Reference value :  3.80216e-05
 Reference value :  3.80279e-05
 Reference value :  3.80402e-05
 Reference value :  3.80534e-05
 Reference value :  3.80627e-05
 Reference value :  3.80741e-05
 Reference value :  3.80943e-05
 Reference value :  3.81460e-05
 Reference value :  3.82501e-05
 Reference value :  3.82502e-05
 Reference value :  3.82502e-05
 Reference value :  3.82503e-05
 Reference value :  3.82511e-05
 Reference value :  3.82520e-05
 Reference value :  3.82537e-05
 Reference value :  3.82580e-05
 Reference value :  3.83660e-05
 Reference value :  3.85005e-05
 Reference value :  3.85019e-05
 Reference value :  3.85035e-05
 Reference value :  3.85056e-05
 Reference value :  3.85070e-05
 Reference value :  3.85089e-05
 Reference value :  3.85121e-05
 Reference value :  3.86320e-05
 Reference value :  3.87502e-05
 Reference value :  3.87504e-05
 Reference value :  3.87520e-05
 Reference value :  3.87544e-05
 Reference value :  3.87562e-05
 Reference value :  3.87621e-05
 Reference value :  3.88381e-05
 Reference value :  3.90001e-05
 Reference value :  3.90005e-05
 Reference value :  3.90016e-05
 Reference value :  3.90031e-05
 Reference value :  3.90052e-05
 Reference value :  3.90081e-05
 Reference value :  3.90110e-05
 Reference value :  3.90130e-05
 Reference value :  3.90153e-05
 Reference value :  3.90181e-05
 Reference value :  3.90256e-05
 Reference value :  3.90400e-05
 Reference value :  3.90528e-05
 Reference value :  3.91032e-05
 Reference value :  3.92501e-05
 Reference value :  3.92502e-05
 Reference value :  3.92503e-05
 Reference value :  3.92507e-05
 Reference value :  3.92520e-05
 Reference value :  3.92532e-05
 Reference value :  3.92544e-05
 Reference value :  3.92557e-05
 Reference value :  3.92596e-05
 Reference value :  3.92855e-05
 Reference value :  3.95000e-05
 Reference value :  3.95001e-05
 Reference value :  3.95002e-05
 Reference value :  3.95005e-05
 Reference value :  3.95012e-05
 Reference value :  3.95021e-05
 Reference value :  3.95031e-05
 Reference value :  3.95049e-05
 Reference value :  3.95063e-05
 Reference value :  3.95089e-05
 Reference value :  3.95190e-05
 Reference value :  3.97501e-05
 Reference value :  3.97502e-05
 Reference value :  3.97504e-05
 Reference value :  3.97520e-05
 Reference value :  3.97544e-05
 Reference value :  3.97563e-05
 Reference value :  3.97700e-05
 Reference value :  4.00000e-05
 Reference value :  4.00002e-05
 Reference value :  4.00009e-05
 Reference value :  4.00021e-05
 Reference value :  4.00036e-05
 Reference value :  4.00052e-05
 Reference value :  4.00073e-05
 Reference value :  4.00103e-05
 Reference value :  4.00145e-05
 Reference value :  4.00176e-05
 Reference value :  4.00244e-05
 Reference value :  4.00562e-05
 Reference value :  4.02501e-05
 Reference value :  4.02502e-05
 Reference value :  4.02504e-05
 Reference value :  4.02520e-05
 Reference value :  4.02538e-05
 Reference value :  4.02550e-05
 Reference value :  4.02580e-05
 Reference value :  4.02724e-05
 Reference value :  4.03648e-05
 Reference value :  4.05000e-05
 Reference value :  4.05001e-05
 Reference value :  4.05002e-05
 Reference value :  4.05009e-05
 Reference value :  4.05016e-05
 Reference value :  4.05031e-05
 Reference value :  4.05042e-05
 Reference value :  4.05057e-05
 Reference value :  4.05063e-05
 Reference value :  4.05079e-05
 Reference value :  4.05109e-05
 Reference value :  4.05265e-05
 Reference value :  4.07501e-05
 Reference value :  4.07502e-05
 Reference value :  4.07503e-05
 Reference value :  4.07507e-05
 Reference value :  4.07520e-05
 Reference value :  4.07532e-05
 Reference value :  4.07538e-05
 Reference value :  4.07549e-05
 Reference value :  4.07563e-05
 Reference value :  4.07612e-05
 Reference value :  4.08465e-05
 Reference value :  4.10012e-05
 Reference value :  4.10047e-05
 Reference value :  4.10078e-05
 Reference value :  4.10119e-05
 Reference value :  4.10142e-05
 Reference value :  4.10174e-05
 Reference value :  4.10257e-05
 Reference value :  4.10411e-05
 Reference value :  4.10650e-05
 Reference value :  4.11834e-05
 Reference value :  4.12502e-05
 Reference value :  4.12507e-05
 Reference value :  4.12525e-05
 Reference value :  4.12536e-05
 Reference value :  4.12548e-05
 Reference value :  4.12562e-05
 Reference value :  4.12643e-05
 Reference value :  4.13458e-05
 Reference value :  4.15000e-05
 Reference value :  4.15001e-05
 Reference value :  4.15002e-05
 Reference value :  4.15005e-05
 Reference value :  4.15012e-05
 Reference value :  4.15016e-05
 Reference value :  4.15025e-05
 Reference value :  4.15030e-05
 Reference value :  4.15041e-05
 Reference value :  4.15056e-05
 Reference value :  4.15062e-05
 Reference value :  4.15079e-05
 Reference value :  4.15111e-05
 Reference value :  4.15191e-05
 Reference value :  4.16261e-05
 Reference value :  4.17501e-05
 Reference value :  4.17502e-05
 Reference value :  4.17502e-05
 Reference value :  4.17504e-05
 Reference value :  4.17516e-05
 Reference value :  4.17525e-05
 Reference value :  4.17538e-05
 Reference value :  4.17549e-05
 Reference value :  4.17562e-05
 Reference value :  4.17578e-05
 Reference value :  4.17604e-05
 Reference value :  4.17647e-05
 Reference value :  4.17842e-05
 Reference value :  4.19014e-05
 Reference value :  4.20000e-05
 Reference value :  4.20001e-05
 Reference value :  4.20001e-05
 Reference value :  4.20002e-05
 Reference value :  4.20003e-05
 Reference value :  4.20009e-05
 Reference value :  4.20016e-05
 Reference value :  4.20031e-05
 Reference value :  4.20041e-05
 Reference value :  4.20052e-05
 Reference value :  4.20063e-05
 Reference value :  4.20077e-05
 Reference value :  4.20093e-05
 Reference value :  4.20109e-05
 Reference value :  4.20137e-05
 Reference value :  4.20175e-05
 Reference value :  4.20294e-05
 Reference value :  4.20701e-05
 Reference value :  4.21125e-05
 Reference value :  4.21348e-05
 Reference value :  4.21769e-05
 Reference value :  4.22391e-05
 Reference value :  4.22501e-05
 Reference value :  4.22502e-05
 Reference value :  4.22504e-05
 Reference value :  4.22516e-05
 Reference value :  4.22525e-05
 Reference value :  4.22539e-05
 Reference value :  4.22584e-05
 Reference value :  4.22668e-05
 Reference value :  4.23788e-05
 Reference value :  4.25000e-05
 Reference value :  4.25000e-05
 Reference value :  4.25000e-05
 Reference value :  4.25000e-05
 Reference value :  4.25001e-05
 Reference value :  4.25001e-05
 Reference value :  4.25004e-05
 Reference value :  4.25016e-05
 Reference value :  4.25020e-05
 Reference value :  4.25031e-05
 Reference value :  4.25042e-05
 Reference value :  4.25046e-05
 Reference value :  4.25058e-05
 Reference value :  4.25095e-05
 Reference value :  4.25229e-05
 Reference value :  4.25290e-05
 Reference value :  4.25332e-05
 Reference value :  4.25391e-05
 Reference value :  4.25498e-05
 Reference value :  4.25607e-05
 Reference value :  4.25811e-05
 Reference value :  4.26192e-05
 Reference value :  4.26779e-05
 Reference value :  4.27501e-05
 Reference value :  4.27502e-05
 Reference value :  4.27503e-05
 Reference value :  4.27511e-05
 Reference value :  4.27520e-05
 Reference value :  4.27537e-05
 Reference value :  4.27550e-05
 Reference value :  4.27580e-05
 Reference value :  4.27722e-05
 Reference value :  4.28482e-05
 Reference value :  4.29128e-05
 Reference value :  4.29288e-05
 Reference value :  4.29564e-05
 Reference value :  4.30000e-05
 Reference value :  4.30000e-05
 Reference value :  4.30001e-05
 Reference value :  4.30003e-05
 Reference value :  4.30011e-05
 Reference value :  4.30025e-05
 Reference value :  4.30036e-05
 Reference value :  4.30056e-05
 Reference value :  4.30099e-05
 Reference value :  4.30126e-05
 Reference value :  4.30215e-05
 Reference value :  4.31973e-05
 Reference value :  4.32502e-05
 Reference value :  4.32507e-05
 Reference value :  4.32525e-05
 Reference value :  4.32543e-05
 Reference value :  4.32562e-05
 Reference value :  4.32584e-05
 Reference value :  4.32749e-05
 Reference value :  4.35010e-05
 Reference value :  4.35042e-05
 Reference value :  4.35069e-05
 Reference value :  4.35097e-05
 Reference value :  4.35124e-05
 Reference value :  4.35148e-05
 Reference value :  4.35184e-05
 Reference value :  4.35305e-05
 Reference value :  4.36831e-05
 Reference value :  4.37502e-05
 Reference value :  4.37503e-05
 Reference value :  4.37520e-05
 Reference value :  4.37536e-05
 Reference value :  4.37548e-05
 Reference value :  4.37574e-05
 Reference value :  4.37705e-05
 Reference value :  4.37952e-05
 Reference value :  4.38033e-05
 Reference value :  4.38285e-05
 Reference value :  4.38549e-05
 Reference value :  4.39297e-05
 Reference value :  4.40000e-05
 Reference value :  4.40001e-05
 Reference value :  4.40005e-05
 Reference value :  4.40016e-05
 Reference value :  4.40031e-05
 Reference value :  4.40049e-05
 Reference value :  4.40063e-05
 Reference value :  4.40089e-05
 Reference value :  4.40144e-05
 Reference value :  4.42501e-05
 Reference value :  4.42502e-05
 Reference value :  4.42504e-05
 Reference value :  4.42516e-05
 Reference value :  4.42525e-05
 Reference value :  4.42538e-05
 Reference value :  4.42549e-05
 Reference value :  4.42563e-05
 Reference value :  4.42590e-05
 Reference value :  4.42699e-05
 Reference value :  4.43467e-05
 Reference value :  4.45000e-05
 Reference value :  4.45001e-05
 Reference value :  4.45002e-05
 Reference value :  4.45005e-05
 Reference value :  4.45012e-05
 Reference value :  4.45021e-05
 Reference value :  4.45031e-05
 Reference value :  4.45042e-05
 Reference value :  4.45052e-05
 Reference value :  4.45073e-05
 Reference value :  4.45103e-05
 Reference value :  4.45134e-05
 Reference value :  4.45156e-05
 Reference value :  4.45176e-05
 Reference value :  4.45199e-05
 Reference value :  4.45394e-05
 Reference value :  4.45515e-05
 Reference value :  4.45768e-05
 Reference value :  4.45918e-05
 Reference value :  4.46134e-05
 Reference value :  4.46680e-05
 Reference value :  4.47501e-05
 Reference value :  4.47502e-05
 Reference value :  4.47504e-05
 Reference value :  4.47516e-05
 Reference value :  4.47532e-05
 Reference value :  4.47543e-05
 Reference value :  4.47565e-05
 Reference value :  4.47626e-05
 Reference value :  4.48126e-05
 Reference value :  4.50000e-05
 Reference value :  4.50001e-05
 Reference value :  4.50002e-05
 Reference value :  4.50005e-05
 Reference value :  4.50012e-05
 Reference value :  4.50016e-05
 Reference value :  4.50025e-05
 Reference value :  4.50036e-05
 Reference value :  4.50049e-05
 Reference value :  4.50062e-05
 Reference value :  4.50079e-05
 Reference value :  4.50099e-05
 Reference value :  4.50122e-05
 Reference value :  4.50262e-05
 Reference value :  4.51257e-05
 Reference value :  4.52501e-05
 Reference value :  4.52502e-05
 Reference value :  4.52502e-05
 Reference value :  4.52504e-05
 Reference value :  4.52511e-05
 Reference value :  4.52520e-05
 Reference value :  4.52532e-05
 Reference value :  4.52538e-05
 Reference value :  4.52549e-05
 Reference value :  4.52562e-05
 Reference value :  4.52579e-05
 Reference value :  4.52604e-05
 Reference value :  4.52647e-05
 Reference value :  4.52844e-05
 Reference value :  4.54045e-05
 Reference value :  4.55000e-05
 Reference value :  4.55001e-05
 Reference value :  4.55002e-05
 Reference value :  4.55009e-05
 Reference value :  4.55016e-05
 Reference value :  4.55026e-05
 Reference value :  4.55036e-05
 Reference value :  4.55047e-05
 Reference value :  4.55052e-05
 Reference value :  4.55064e-05
 Reference value :  4.55081e-05
 Reference value :  4.55101e-05
 Reference value :  4.55120e-05
 Reference value :  4.55137e-05
 Reference value :  4.55153e-05
 Reference value :  4.55181e-05
 Reference value :  4.55255e-05
 Reference value :  4.55490e-05
 Reference value :  4.55777e-05
 Reference value :  4.55920e-05
 Reference value :  4.56031e-05
 Reference value :  4.56089e-05
 Reference value :  4.56140e-05
 Reference value :  4.56251e-05
 Reference value :  4.56389e-05
 Reference value :  4.56869e-05
 Reference value :  4.57501e-05
 Reference value :  4.57502e-05
 Reference value :  4.57503e-05
 Reference value :  4.57507e-05
 Reference value :  4.57520e-05
 Reference value :  4.57538e-05
 Reference value :  4.57557e-05
 Reference value :  4.57723e-05
 Reference value :  4.60000e-05
 Reference value :  4.60005e-05
 Reference value :  4.60021e-05
 Reference value :  4.60031e-05
 Reference value :  4.60049e-05
 Reference value :  4.60067e-05
 Reference value :  4.60085e-05
 Reference value :  4.60117e-05
 Reference value :  4.60245e-05
 Reference value :  4.60799e-05
 Reference value :  4.62501e-05
 Reference value :  4.62501e-05
 Reference value :  4.62502e-05
 Reference value :  4.62503e-05
 Reference value :  4.62507e-05
 Reference value :  4.62516e-05
 Reference value :  4.62525e-05
 Reference value :  4.62538e-05
 Reference value :  4.62549e-05
 Reference value :  4.62563e-05
 Reference value :  4.62590e-05
 Reference value :  4.62699e-05
 Reference value :  4.63462e-05
 Reference value :  4.65000e-05
 Reference value :  4.65001e-05
 Reference value :  4.65002e-05
 Reference value :  4.65003e-05
 Reference value :  4.65009e-05
 Reference value :  4.65016e-05
 Reference value :  4.65031e-05
 Reference value :  4.65042e-05
[...]
 Reference value :  1.67503e-04
 Reference value :  1.67504e-04
 Reference value :  1.67505e-04
 Reference value :  1.67506e-04
 Reference value :  1.67508e-04
 Reference value :  1.67510e-04
 Reference value :  1.67512e-04
 Reference value :  1.67514e-04
 Reference value :  1.67515e-04
 Reference value :  1.67518e-04
 Reference value :  1.67526e-04
 Reference value :  1.67540e-04
 Reference value :  1.67552e-04
 Reference value :  1.67569e-04
 Reference value :  1.67587e-04
 Reference value :  1.67626e-04
 Reference value :  1.67750e-04
 Reference value :  1.67750e-04
 Reference value :  1.67750e-04
 Reference value :  1.67752e-04
 Reference value :  1.67753e-04
 Reference value :  1.67754e-04
 Reference value :  1.67756e-04
 Reference value :  1.67762e-04
 Reference value :  1.67811e-04
 Reference value :  1.68000e-04
 Reference value :  1.68000e-04
 Reference value :  1.68000e-04
 Reference value :  1.68000e-04
 Reference value :  1.68001e-04
 Reference value :  1.68002e-04
 Reference value :  1.68003e-04
 Reference value :  1.68005e-04
 Reference value :  1.68006e-04
 Reference value :  1.68008e-04
 Reference value :  1.68010e-04
 Reference value :  1.68014e-04
 Reference value :  1.68024e-04
 Reference value :  1.68060e-04
 Reference value :  1.68250e-04
 Reference value :  1.68250e-04
 Reference value :  1.68251e-04
 Reference value :  1.68252e-04
 Reference value :  1.68254e-04
 Reference value :  1.68256e-04
 Reference value :  1.68257e-04
 Reference value :  1.68260e-04
 Reference value :  1.68268e-04
 Reference value :  1.68303e-04
 Reference value :  1.68500e-04
 Reference value :  1.68500e-04
 Reference value :  1.68500e-04
 Reference value :  1.68500e-04
 Reference value :  1.68501e-04
 Reference value :  1.68502e-04
 Reference value :  1.68503e-04
 Reference value :  1.68504e-04
 Reference value :  1.68505e-04
 Reference value :  1.68507e-04
 Reference value :  1.68509e-04
 Reference value :  1.68510e-04
 Reference value :  1.68511e-04
 Reference value :  1.68512e-04
 Reference value :  1.68514e-04
 Reference value :  1.68515e-04
 Reference value :  1.68516e-04
 Reference value :  1.68518e-04
 Reference value :  1.68521e-04
 Reference value :  1.68526e-04
 Reference value :  1.68540e-04
 Reference value :  1.68639e-04
 Reference value :  1.68750e-04
 Reference value :  1.68750e-04
 Reference value :  1.68750e-04
 Reference value :  1.68750e-04
 Reference value :  1.68750e-04
 Reference value :  1.68751e-04
 Reference value :  1.68752e-04
 Reference value :  1.68753e-04
 Reference value :  1.68754e-04
 Reference value :  1.68756e-04
 Reference value :  1.68763e-04
 Reference value :  1.68864e-04
 Reference value :  1.69000e-04
 Reference value :  1.69000e-04
 Reference value :  1.69000e-04
 Reference value :  1.69001e-04
 Reference value :  1.69002e-04
 Reference value :  1.69003e-04
 Reference value :  1.69004e-04
 Reference value :  1.69006e-04
 Reference value :  1.69008e-04
 Reference value :  1.69011e-04
 Reference value :  1.69026e-04
 Reference value :  1.69132e-04
 Reference value :  1.69250e-04
 Reference value :  1.69250e-04
 Reference value :  1.69250e-04
 Reference value :  1.69250e-04
 Reference value :  1.69252e-04
 Reference value :  1.69254e-04
 Reference value :  1.69255e-04
 Reference value :  1.69257e-04
 Reference value :  1.69264e-04
 Reference value :  1.69303e-04
 Reference value :  1.69500e-04
 Reference value :  1.69500e-04
 Reference value :  1.69500e-04
 Reference value :  1.69502e-04
 Reference value :  1.69504e-04
 Reference value :  1.69505e-04
 Reference value :  1.69508e-04
 Reference value :  1.69526e-04
 Reference value :  1.69750e-04
 Reference value :  1.69750e-04
 Reference value :  1.69752e-04
 Reference value :  1.69753e-04
 Reference value :  1.69755e-04
 Reference value :  1.69758e-04
 Reference value :  1.69774e-04
 Reference value :  1.69998e-04
 Reference value :  1.70000e-04
 Reference value :  1.70000e-04
 Reference value :  1.70000e-04
 Reference value :  1.70000e-04
 Reference value :  1.70000e-04
 Reference value :  1.70000e-04
 Reference value :  1.70001e-04
 Reference value :  1.70002e-04
 Reference value :  1.70003e-04
 Reference value :  1.70004e-04
 Reference value :  1.70005e-04
 Reference value :  1.70006e-04
 Reference value :  1.70008e-04
 Reference value :  1.70012e-04
 Reference value :  1.70023e-04
 Reference value :  1.70029e-04
 Reference value :  1.70033e-04
 Reference value :  1.70039e-04
 Reference value :  1.70043e-04
 Reference value :  1.70057e-04
 Reference value :  1.70098e-04
 Reference value :  1.70216e-04
 Reference value :  1.70250e-04
 Reference value :  1.70250e-04
 Reference value :  1.70250e-04
 Reference value :  1.70252e-04
 Reference value :  1.70253e-04
 Reference value :  1.70254e-04
 Reference value :  1.70255e-04
 Reference value :  1.70256e-04
 Reference value :  1.70262e-04
 Reference value :  1.70285e-04
 Reference value :  1.70353e-04
 Reference value :  1.70395e-04
 Reference value :  1.70431e-04
 Reference value :  1.70449e-04
 Reference value :  1.70460e-04
 Reference value :  1.70481e-04
 Reference value :  1.70500e-04
 Reference value :  1.70500e-04
 Reference value :  1.70500e-04
 Reference value :  1.70501e-04
 Reference value :  1.70502e-04
 Reference value :  1.70503e-04
 Reference value :  1.70506e-04
 Reference value :  1.70510e-04
 Reference value :  1.70513e-04
 Reference value :  1.70516e-04
 Reference value :  1.70534e-04
 Reference value :  1.70643e-04
 Reference value :  1.70750e-04
 Reference value :  1.70750e-04
 Reference value :  1.70750e-04
 Reference value :  1.70751e-04
 Reference value :  1.70752e-04
 Reference value :  1.70753e-04
 Reference value :  1.70754e-04
 Reference value :  1.70755e-04
 Reference value :  1.70756e-04
 Reference value :  1.70758e-04
 Reference value :  1.70759e-04
 Reference value :  1.70766e-04
 Reference value :  1.70784e-04
 Reference value :  1.70815e-04
 Reference value :  1.70946e-04
 Reference value :  1.71000e-04
 Reference value :  1.71000e-04
 Reference value :  1.71000e-04
 Reference value :  1.71001e-04
 Reference value :  1.71001e-04
 Reference value :  1.71002e-04
 Reference value :  1.71003e-04
 Reference value :  1.71003e-04
 Reference value :  1.71004e-04
 Reference value :  1.71005e-04
 Reference value :  1.71007e-04
 Reference value :  1.71009e-04
 Reference value :  1.71011e-04
 Reference value :  1.71013e-04
 Reference value :  1.71014e-04
 Reference value :  1.71016e-04
 Reference value :  1.71019e-04
 Reference value :  1.71038e-04
 Reference value :  1.71182e-04
 Reference value :  1.71250e-04
 Reference value :  1.71250e-04
 Reference value :  1.71250e-04
 Reference value :  1.71251e-04
 Reference value :  1.71252e-04
 Reference value :  1.71254e-04
 Reference value :  1.71255e-04
 Reference value :  1.71258e-04
 Reference value :  1.71265e-04
 Reference value :  1.71267e-04
 Reference value :  1.71274e-04
 Reference value :  1.71296e-04
 Reference value :  1.71323e-04
 Reference value :  1.71421e-04
 Reference value :  1.71500e-04
 Reference value :  1.71500e-04
 Reference value :  1.71500e-04
 Reference value :  1.71501e-04
 Reference value :  1.71502e-04
 Reference value :  1.71503e-04
 Reference value :  1.71505e-04
 Reference value :  1.71506e-04
 Reference value :  1.71508e-04
 Reference value :  1.71510e-04
 Reference value :  1.71514e-04
 Reference value :  1.71569e-04
 Reference value :  1.71750e-04
 Reference value :  1.71750e-04
 Reference value :  1.71750e-04
 Reference value :  1.71751e-04
 Reference value :  1.71752e-04
 Reference value :  1.71753e-04
 Reference value :  1.71754e-04
 Reference value :  1.71756e-04
 Reference value :  1.71764e-04
 Reference value :  1.71935e-04
 Reference value :  1.72000e-04
 Reference value :  1.72000e-04
 Reference value :  1.72000e-04
 Reference value :  1.72001e-04
 Reference value :  1.72001e-04
 Reference value :  1.72002e-04
 Reference value :  1.72003e-04
 Reference value :  1.72003e-04
 Reference value :  1.72004e-04
 Reference value :  1.72005e-04
 Reference value :  1.72007e-04
 Reference value :  1.72010e-04
 Reference value :  1.72013e-04
 Reference value :  1.72016e-04
 Reference value :  1.72016e-04
 Reference value :  1.72019e-04
 Reference value :  1.72022e-04
 Reference value :  1.72039e-04
 Reference value :  1.72073e-04
 Reference value :  1.72102e-04
 Reference value :  1.72108e-04
 Reference value :  1.72116e-04
 Reference value :  1.72138e-04
 Reference value :  1.72195e-04
 Reference value :  1.72250e-04
 Reference value :  1.72250e-04
 Reference value :  1.72250e-04
 Reference value :  1.72250e-04
 Reference value :  1.72251e-04
 Reference value :  1.72252e-04
 Reference value :  1.72252e-04
 Reference value :  1.72254e-04
 Reference value :  1.72255e-04
 Reference value :  1.72258e-04
 Reference value :  1.72273e-04
 Reference value :  1.72366e-04
 Reference value :  1.72500e-04
 Reference value :  1.72500e-04
 Reference value :  1.72500e-04
 Reference value :  1.72501e-04
 Reference value :  1.72502e-04
 Reference value :  1.72503e-04
 Reference value :  1.72504e-04
 Reference value :  1.72506e-04
 Reference value :  1.72507e-04
 Reference value :  1.72510e-04
 Reference value :  1.72526e-04
 Reference value :  1.72750e-04
 Reference value :  1.72750e-04
 Reference value :  1.72750e-04
 Reference value :  1.72752e-04
 Reference value :  1.72754e-04
 Reference value :  1.72755e-04
 Reference value :  1.72757e-04
 Reference value :  1.72760e-04
 Reference value :  1.72774e-04
 Reference value :  1.72904e-04
 Reference value :  1.73000e-04
 Reference value :  1.73000e-04
 Reference value :  1.73000e-04
 Reference value :  1.73001e-04
 Reference value :  1.73002e-04
 Reference value :  1.73003e-04
 Reference value :  1.73005e-04
 Reference value :  1.73006e-04
 Reference value :  1.73008e-04
 Reference value :  1.73010e-04
 Reference value :  1.73012e-04
 Reference value :  1.73014e-04
 Reference value :  1.73015e-04
 Reference value :  1.73018e-04
 Reference value :  1.73023e-04
 Reference value :  1.73039e-04
 Reference value :  1.73057e-04
 Reference value :  1.73065e-04
 Reference value :  1.73076e-04
 Reference value :  1.73099e-04
 Reference value :  1.73119e-04
 Reference value :  1.73231e-04
 Reference value :  1.73250e-04
 Reference value :  1.73250e-04
 Reference value :  1.73250e-04
 Reference value :  1.73251e-04
 Reference value :  1.73252e-04
 Reference value :  1.73253e-04
 Reference value :  1.73254e-04
 Reference value :  1.73255e-04
 Reference value :  1.73258e-04
 Reference value :  1.73272e-04
 Reference value :  1.73364e-04
 Reference value :  1.73500e-04
 Reference value :  1.73500e-04
 Reference value :  1.73500e-04
 Reference value :  1.73501e-04
 Reference value :  1.73501e-04
 Reference value :  1.73502e-04
 Reference value :  1.73503e-04
 Reference value :  1.73505e-04
 Reference value :  1.73506e-04
 Reference value :  1.73508e-04
 Reference value :  1.73510e-04
 Reference value :  1.73512e-04
 Reference value :  1.73542e-04
 Reference value :  1.73750e-04
 Reference value :  1.73750e-04
 Reference value :  1.73750e-04
 Reference value :  1.73750e-04
 Reference value :  1.73751e-04
 Reference value :  1.73752e-04
 Reference value :  1.73753e-04
 Reference value :  1.73754e-04
 Reference value :  1.73755e-04
 Reference value :  1.73756e-04
 Reference value :  1.73761e-04
 Reference value :  1.73781e-04
 Reference value :  1.73935e-04
 Reference value :  1.74000e-04
 Reference value :  1.74000e-04
 Reference value :  1.74000e-04
 Reference value :  1.74001e-04
 Reference value :  1.74002e-04
 Reference value :  1.74003e-04
 Reference value :  1.74005e-04
 Reference value :  1.74006e-04
 Reference value :  1.74010e-04
 Reference value :  1.74013e-04
 Reference value :  1.74016e-04
 Reference value :  1.74018e-04
 Reference value :  1.74020e-04
 Reference value :  1.74029e-04
 Reference value :  1.74046e-04
 Reference value :  1.74063e-04
 Reference value :  1.74076e-04
 Reference value :  1.74082e-04
 Reference value :  1.74114e-04
 Reference value :  1.74161e-04
 Reference value :  1.74177e-04
 Reference value :  1.74192e-04
 Reference value :  1.74250e-04
 Reference value :  1.74250e-04
 Reference value :  1.74250e-04
 Reference value :  1.74251e-04
 Reference value :  1.74252e-04
 Reference value :  1.74253e-04
 Reference value :  1.74254e-04
 Reference value :  1.74255e-04
 Reference value :  1.74256e-04
 Reference value :  1.74266e-04
 Reference value :  1.74312e-04
 Reference value :  1.74500e-04
 Reference value :  1.74500e-04
 Reference value :  1.74500e-04
 Reference value :  1.74500e-04
 Reference value :  1.74501e-04
 Reference value :  1.74502e-04
 Reference value :  1.74503e-04
 Reference value :  1.74503e-04
 Reference value :  1.74504e-04
 Reference value :  1.74506e-04
 Reference value :  1.74507e-04
 Reference value :  1.74509e-04
 Reference value :  1.74512e-04
 Reference value :  1.74541e-04
 Reference value :  1.74742e-04
 Reference value :  1.74750e-04
 Reference value :  1.74750e-04
 Reference value :  1.74750e-04
 Reference value :  1.74751e-04
 Reference value :  1.74752e-04
 Reference value :  1.74753e-04
 Reference value :  1.74754e-04
 Reference value :  1.74755e-04
 Reference value :  1.74756e-04
 Reference value :  1.74761e-04
 Reference value :  1.74781e-04
 Reference value :  1.74936e-04
 Reference value :  1.75000e-04
 Reference value :  1.75000e-04
 Reference value :  1.75000e-04
 Reference value :  1.75000e-04
 Reference value :  1.75000e-04
 Reference value :  1.75001e-04
 Reference value :  1.75002e-04
 Reference value :  1.75003e-04
 Reference value :  1.75003e-04
 Reference value :  1.75004e-04
 Reference value :  1.75005e-04
 Reference value :  1.75006e-04
 Reference value :  1.75009e-04
 Reference value :  1.75010e-04
 Reference value :  1.75012e-04
 Reference value :  1.75015e-04
 Reference value :  1.75016e-04
 Reference value :  1.75019e-04
 Reference value :  1.75022e-04
 Reference value :  1.75029e-04
 Reference value :  1.75046e-04
 Reference value :  1.75059e-04
 Reference value :  1.75072e-04
 Reference value :  1.75094e-04
 Reference value :  1.75122e-04
 Reference value :  1.75235e-04
 Reference value :  1.75250e-04
 Reference value :  1.75250e-04
 Reference value :  1.75250e-04
 Reference value :  1.75250e-04
 Reference value :  1.75251e-04
 Reference value :  1.75252e-04
 Reference value :  1.75253e-04
 Reference value :  1.75254e-04
 Reference value :  1.75255e-04
 Reference value :  1.75256e-04
 Reference value :  1.75258e-04
 Reference value :  1.75263e-04
 Reference value :  1.75273e-04
 Reference value :  1.75313e-04
 Reference value :  1.75473e-04
 Reference value :  1.75500e-04
 Reference value :  1.75500e-04
 Reference value :  1.75500e-04
 Reference value :  1.75500e-04
 Reference value :  1.75501e-04
 Reference value :  1.75501e-04
 Reference value :  1.75502e-04
 Reference value :  1.75503e-04
 Reference value :  1.75503e-04
 Reference value :  1.75504e-04
 Reference value :  1.75506e-04
 Reference value :  1.75507e-04
 Reference value :  1.75509e-04
 Reference value :  1.75511e-04
 Reference value :  1.75519e-04
 Reference value :  1.75569e-04
 Reference value :  1.75750e-04
 Reference value :  1.75750e-04
 Reference value :  1.75750e-04
 Reference value :  1.75750e-04
 Reference value :  1.75752e-04
 Reference value :  1.75752e-04
 Reference value :  1.75753e-04
 Reference value :  1.75754e-04
 Reference value :  1.75755e-04
 Reference value :  1.75756e-04
 Reference value :  1.75759e-04
 Reference value :  1.75765e-04
 Reference value :  1.75802e-04
 Reference value :  1.76000e-04
 Reference value :  1.76000e-04
 Reference value :  1.76000e-04
 Reference value :  1.76000e-04
 Reference value :  1.76001e-04
 Reference value :  1.76002e-04
 Reference value :  1.76003e-04
 Reference value :  1.76005e-04
 Reference value :  1.76005e-04
 Reference value :  1.76006e-04
 Reference value :  1.76008e-04
 Reference value :  1.76010e-04
 Reference value :  1.76012e-04
 Reference value :  1.76014e-04
 Reference value :  1.76015e-04
 Reference value :  1.76017e-04
 Reference value :  1.76018e-04
 Reference value :  1.76021e-04
 Reference value :  1.76026e-04
 Reference value :  1.76036e-04
 Reference value :  1.76045e-04
 Reference value :  1.76051e-04
 Reference value :  1.76062e-04
 Reference value :  1.76085e-04
 Reference value :  1.76109e-04
 Reference value :  1.76250e-04
 Reference value :  1.76250e-04
 Reference value :  1.76250e-04
 Reference value :  1.76250e-04
 Reference value :  1.76250e-04
 Reference value :  1.76252e-04
 Reference value :  1.76253e-04
 Reference value :  1.76255e-04
 Reference value :  1.76260e-04
 Reference value :  1.76312e-04
 Reference value :  1.76500e-04
 Reference value :  1.76500e-04
 Reference value :  1.76501e-04
 Reference value :  1.76502e-04
 Reference value :  1.76503e-04
 Reference value :  1.76506e-04
 Reference value :  1.76507e-04
 Reference value :  1.76509e-04
 Reference value :  1.76514e-04
 Reference value :  1.76632e-04
 Reference value :  1.76750e-04
 Reference value :  1.76750e-04
 Reference value :  1.76752e-04
 Reference value :  1.76754e-04
 Reference value :  1.76755e-04
 Reference value :  1.76761e-04
 Reference value :  1.76847e-04
 Reference value :  1.77000e-04
 Reference value :  1.77000e-04
 Reference value :  1.77000e-04
 Reference value :  1.77001e-04
 Reference value :  1.77001e-04
 Reference value :  1.77002e-04
 Reference value :  1.77003e-04
 Reference value :  1.77005e-04
 Reference value :  1.77006e-04
 Reference value :  1.77009e-04
 Reference value :  1.77010e-04
 Reference value :  1.77013e-04
 Reference value :  1.77015e-04
 Reference value :  1.77017e-04
 Reference value :  1.77019e-04
 Reference value :  1.77024e-04
 Reference value :  1.77034e-04
 Reference value :  1.77042e-04
 Reference value :  1.77050e-04
 Reference value :  1.77081e-04
 Reference value :  1.77184e-04
 Reference value :  1.77250e-04
 Reference value :  1.77250e-04
 Reference value :  1.77250e-04
 Reference value :  1.77251e-04
 Reference value :  1.77252e-04
 Reference value :  1.77253e-04
 Reference value :  1.77254e-04
 Reference value :  1.77256e-04
 Reference value :  1.77266e-04
 Reference value :  1.77366e-04
 Reference value :  1.77500e-04
 Reference value :  1.77500e-04
 Reference value :  1.77500e-04
 Reference value :  1.77501e-04
 Reference value :  1.77501e-04
 Reference value :  1.77502e-04
 Reference value :  1.77503e-04
 Reference value :  1.77504e-04
 Reference value :  1.77506e-04
 Reference value :  1.77506e-04
 Reference value :  1.77508e-04
 Reference value :  1.77511e-04
 Reference value :  1.77526e-04
 Reference value :  1.77626e-04
 Reference value :  1.77750e-04
 Reference value :  1.77750e-04
 Reference value :  1.77750e-04
 Reference value :  1.77750e-04
 Reference value :  1.77751e-04
 Reference value :  1.77752e-04
 Reference value :  1.77753e-04
 Reference value :  1.77754e-04
 Reference value :  1.77755e-04
 Reference value :  1.77756e-04
 Reference value :  1.77759e-04
 Reference value :  1.77765e-04
 Reference value :  1.77801e-04
 Reference value :  1.78000e-04
 Reference value :  1.78000e-04
 Reference value :  1.78001e-04
 Reference value :  1.78001e-04
 Reference value :  1.78002e-04
 Reference value :  1.78003e-04
 Reference value :  1.78005e-04
 Reference value :  1.78006e-04
 Reference value :  1.78008e-04
 Reference value :  1.78011e-04
 Reference value :  1.78014e-04
 Reference value :  1.78030e-04
 Reference value :  1.78091e-04
 Reference value :  1.78115e-04
 Reference value :  1.78132e-04
 Reference value :  1.78250e-04
 Reference value :  1.78250e-04
 Reference value :  1.78250e-04
 Reference value :  1.78251e-04
 Reference value :  1.78252e-04
 Reference value :  1.78253e-04
 Reference value :  1.78254e-04
 Reference value :  1.78257e-04
 Reference value :  1.78260e-04
 Reference value :  1.78274e-04
 Reference value :  1.78379e-04
No. of Data Rows : 26278
ngspice-44 done
