
Note: Compatibility modes selected: hs a


Circuit: ** sch_path: /home/audrey/cace/sar-adc-using-sky130-pdk/runs/run_2025-09-01_16-48-38/parameters/power/run_01/power_consumption.sch

option SCALE: Scale is set to 1e-06 for instance and model parameters
option SCALE: Scale is set to 1e-06 for instance and model parameters
option SCALE: Scale is set to 1e-06 for instance and model parameters
option SCALE: Scale is set to 1e-06 for instance and model parameters
Doing analysis at TEMP = 27.000000 and TNOM = 27.000000

Using KLU as Direct Linear Solver
 Reference value :  0.00000e+00
 Reference value :  4.00000e-12
 Reference value :  6.40000e-11
 Reference value :  1.44800e-10
 Reference value :  7.26274e-10
 Reference value :  1.80184e-09
 Reference value :  2.66569e-09
 Reference value :  3.60740e-09
 Reference value :  5.27789e-09
 Reference value :  6.67484e-09
 Reference value :  7.43799e-09
 Reference value :  1.01841e-08
 Reference value :  1.20858e-08
 Reference value :  1.37027e-08
 Reference value :  1.87357e-08
 Reference value :  2.18941e-08
 Reference value :  2.29922e-08
 Reference value :  2.48095e-08
 Reference value :  2.94413e-08
 Reference value :  3.78629e-08
 Reference value :  6.46802e-08
 Reference value :  1.70152e-07
 Reference value :  2.50110e-07
 Reference value :  2.50170e-07
 Reference value :  2.50220e-07
 Reference value :  2.50299e-07
 Reference value :  2.50515e-07
 Reference value :  2.51317e-07
 Reference value :  2.51727e-07
 Reference value :  2.53531e-07
 Reference value :  2.54683e-07
 Reference value :  2.56182e-07
 Reference value :  2.58379e-07
 Reference value :  2.72803e-07
 Reference value :  5.00000e-07
 Reference value :  5.00100e-07
 Reference value :  5.00220e-07
 Reference value :  5.01310e-07
 Reference value :  5.02774e-07
 Reference value :  5.03933e-07
 Reference value :  5.05505e-07
 Reference value :  5.07720e-07
 Reference value :  5.10002e-07
 Reference value :  5.12472e-07
 Reference value :  5.13816e-07
 Reference value :  5.17531e-07
 Reference value :  5.19479e-07
 Reference value :  5.35760e-07
 Reference value :  6.21022e-07
 Reference value :  7.50110e-07
 Reference value :  7.50200e-07
 Reference value :  7.50318e-07
 Reference value :  7.50831e-07
 Reference value :  7.52139e-07
 Reference value :  7.53493e-07
 Reference value :  7.54593e-07
 Reference value :  7.56929e-07
 Reference value :  7.66963e-07
 Reference value :  8.64480e-07
 Reference value :  1.00000e-06
 Reference value :  1.00007e-06
 Reference value :  1.00012e-06
 Reference value :  1.00034e-06
 Reference value :  1.00086e-06
 Reference value :  1.00182e-06
 Reference value :  1.00333e-06
 Reference value :  1.00449e-06
 Reference value :  1.00586e-06
 Reference value :  1.00855e-06
 Reference value :  1.01010e-06
 Reference value :  1.01280e-06
 Reference value :  1.01379e-06
 Reference value :  1.01472e-06
 Reference value :  1.01587e-06
 Reference value :  1.01801e-06
 Reference value :  1.01928e-06
 Reference value :  1.02272e-06
 Reference value :  1.03535e-06
 Reference value :  1.03920e-06
 Reference value :  1.04587e-06
 Reference value :  1.04950e-06
 Reference value :  1.05224e-06
 Reference value :  1.05970e-06
 Reference value :  1.06423e-06
 Reference value :  1.06966e-06
 Reference value :  1.08233e-06
 Reference value :  1.08897e-06
 Reference value :  1.12020e-06
 Reference value :  1.25010e-06
 Reference value :  1.25011e-06
 Reference value :  1.25020e-06
 Reference value :  1.25026e-06
 Reference value :  1.25045e-06
 Reference value :  1.25084e-06
 Reference value :  1.25171e-06
 Reference value :  1.25273e-06
 Reference value :  1.25346e-06
 Reference value :  1.25396e-06
 Reference value :  1.25514e-06
 Reference value :  1.25584e-06
 Reference value :  1.25661e-06
 Reference value :  1.26273e-06
 Reference value :  1.27448e-06
 Reference value :  1.38418e-06
 Reference value :  1.50001e-06
 Reference value :  1.50010e-06
 Reference value :  1.50012e-06
 Reference value :  1.50034e-06
 Reference value :  1.50052e-06
 Reference value :  1.50086e-06
 Reference value :  1.50175e-06
 Reference value :  1.50268e-06
 Reference value :  1.50322e-06
 Reference value :  1.50442e-06
 Reference value :  1.50605e-06
 Reference value :  1.50671e-06
 Reference value :  1.50832e-06
 Reference value :  1.51031e-06
 Reference value :  1.51386e-06
 Reference value :  1.57575e-06
 Reference value :  1.75011e-06
 Reference value :  1.75017e-06
 Reference value :  1.75021e-06
 Reference value :  1.75032e-06
 Reference value :  1.75060e-06
 Reference value :  1.75126e-06
 Reference value :  1.75214e-06
 Reference value :  1.75350e-06
 Reference value :  1.75460e-06
 Reference value :  1.75598e-06
 Reference value :  1.75765e-06
 Reference value :  1.75978e-06
 Reference value :  1.76679e-06
 Reference value :  1.81669e-06
 Reference value :  2.00000e-06
 Reference value :  2.00007e-06
 Reference value :  2.00012e-06
 Reference value :  2.00034e-06
 Reference value :  2.00131e-06
 Reference value :  2.00231e-06
 Reference value :  2.00334e-06
 Reference value :  2.00457e-06
 Reference value :  2.00582e-06
 Reference value :  2.00834e-06
 Reference value :  2.01047e-06
 Reference value :  2.01155e-06
 Reference value :  2.01351e-06
 Reference value :  2.01529e-06
 Reference value :  2.01835e-06
 Reference value :  2.02330e-06
 Reference value :  2.06836e-06
 Reference value :  2.22275e-06
 Reference value :  2.25013e-06
 Reference value :  2.25021e-06
 Reference value :  2.25032e-06
 Reference value :  2.25060e-06
 Reference value :  2.25171e-06
 Reference value :  2.25352e-06
 Reference value :  2.25462e-06
 Reference value :  2.25597e-06
 Reference value :  2.25830e-06
 Reference value :  2.26748e-06
 Reference value :  2.29380e-06
 Reference value :  2.39092e-06
 Reference value :  2.50001e-06
 Reference value :  2.50007e-06
 Reference value :  2.50011e-06
 Reference value :  2.50022e-06
 Reference value :  2.50086e-06
 Reference value :  2.50175e-06
 Reference value :  2.50268e-06
 Reference value :  2.50322e-06
 Reference value :  2.50442e-06
 Reference value :  2.50522e-06
 Reference value :  2.50671e-06
 Reference value :  2.50748e-06
 Reference value :  2.50832e-06
 Reference value :  2.51030e-06
 Reference value :  2.51385e-06
 Reference value :  2.54211e-06
 Reference value :  2.63900e-06
 Reference value :  2.75010e-06
 Reference value :  2.75011e-06
 Reference value :  2.75017e-06
 Reference value :  2.75021e-06
 Reference value :  2.75022e-06
 Reference value :  2.75026e-06
 Reference value :  2.75032e-06
 Reference value :  2.75044e-06
 Reference value :  2.75060e-06
 Reference value :  2.75126e-06
 Reference value :  2.75170e-06
 Reference value :  2.75214e-06
 Reference value :  2.75270e-06
 Reference value :  2.75350e-06
 Reference value :  2.75401e-06
 Reference value :  2.75527e-06
 Reference value :  2.75679e-06
 Reference value :  2.75871e-06
 Reference value :  2.76342e-06
 Reference value :  2.78016e-06
 Reference value :  2.81654e-06
 Reference value :  3.00000e-06
 Reference value :  3.00007e-06
 Reference value :  3.00011e-06
 Reference value :  3.00034e-06
 Reference value :  3.00086e-06
 Reference value :  3.00182e-06
 Reference value :  3.00278e-06
 Reference value :  3.00334e-06
 Reference value :  3.00457e-06
 Reference value :  3.00582e-06
 Reference value :  3.00733e-06
 Reference value :  3.00943e-06
 Reference value :  3.01155e-06
 Reference value :  3.01351e-06
 Reference value :  3.01528e-06
 Reference value :  3.01835e-06
 Reference value :  3.02329e-06
 Reference value :  3.04546e-06
 Reference value :  3.09281e-06
 Reference value :  3.10469e-06
 Reference value :  3.11049e-06
 Reference value :  3.12173e-06
 Reference value :  3.14146e-06
 Reference value :  3.23639e-06
 Reference value :  3.25011e-06
 Reference value :  3.25020e-06
 Reference value :  3.25032e-06
 Reference value :  3.25083e-06
 Reference value :  3.25170e-06
 Reference value :  3.25271e-06
 Reference value :  3.25401e-06
 Reference value :  3.25598e-06
 Reference value :  3.26015e-06
 Reference value :  3.29409e-06
 Reference value :  3.34773e-06
 Reference value :  3.37444e-06
 Reference value :  3.39265e-06
 Reference value :  3.41011e-06
 Reference value :  3.42293e-06
 Reference value :  3.50000e-06
 Reference value :  3.50003e-06
 Reference value :  3.50010e-06
 Reference value :  3.50016e-06
 Reference value :  3.50034e-06
 Reference value :  3.50086e-06
 Reference value :  3.50174e-06
 Reference value :  3.50266e-06
 Reference value :  3.50320e-06
 Reference value :  3.50377e-06
 Reference value :  3.50440e-06
 Reference value :  3.50520e-06
 Reference value :  3.50602e-06
 Reference value :  3.50669e-06
 Reference value :  3.50832e-06
 Reference value :  3.51030e-06
 Reference value :  3.51367e-06
 Reference value :  3.53810e-06
 Reference value :  3.62103e-06
 Reference value :  3.75011e-06
 Reference value :  3.75017e-06
 Reference value :  3.75021e-06
 Reference value :  3.75032e-06
 Reference value :  3.75060e-06
 Reference value :  3.75084e-06
 Reference value :  3.75127e-06
 Reference value :  3.75171e-06
 Reference value :  3.75215e-06
 Reference value :  3.75350e-06
 Reference value :  3.75401e-06
 Reference value :  3.75595e-06
 Reference value :  3.75763e-06
 Reference value :  3.75978e-06
 Reference value :  3.76167e-06
 Reference value :  3.76680e-06
 Reference value :  3.77236e-06
 Reference value :  3.79535e-06
 Reference value :  3.92040e-06
 Reference value :  4.00003e-06
 Reference value :  4.00010e-06
 Reference value :  4.00016e-06
 Reference value :  4.00052e-06
 Reference value :  4.00086e-06
 Reference value :  4.00131e-06
 Reference value :  4.00230e-06
 Reference value :  4.00334e-06
 Reference value :  4.00456e-06
 Reference value :  4.00582e-06
 Reference value :  4.00836e-06
 Reference value :  4.01046e-06
 Reference value :  4.01152e-06
 Reference value :  4.01349e-06
 Reference value :  4.01530e-06
 Reference value :  4.01727e-06
 Reference value :  4.01948e-06
 Reference value :  4.02325e-06
 Reference value :  4.02927e-06
 Reference value :  4.03244e-06
 Reference value :  4.03460e-06
 Reference value :  4.03870e-06
 Reference value :  4.04435e-06
 Reference value :  4.05316e-06
 Reference value :  4.06587e-06
 Reference value :  4.09511e-06
 Reference value :  4.15528e-06
 Reference value :  4.25013e-06
 Reference value :  4.25020e-06
 Reference value :  4.25022e-06
 Reference value :  4.25026e-06
 Reference value :  4.25039e-06
 Reference value :  4.25074e-06
 Reference value :  4.25147e-06
 Reference value :  4.25245e-06
 Reference value :  4.25384e-06
 Reference value :  4.25441e-06
 Reference value :  4.25565e-06
 Reference value :  4.25738e-06
 Reference value :  4.26503e-06
 Reference value :  4.28531e-06
 Reference value :  4.47463e-06
 Reference value :  4.50007e-06
 Reference value :  4.50011e-06
 Reference value :  4.50016e-06
 Reference value :  4.50035e-06
 Reference value :  4.50093e-06
 Reference value :  4.50196e-06
 Reference value :  4.50245e-06
 Reference value :  4.50350e-06
 Reference value :  4.50410e-06
 Reference value :  4.50570e-06
 Reference value :  4.50641e-06
 Reference value :  4.50828e-06
 Reference value :  4.51020e-06
 Reference value :  4.51126e-06
 Reference value :  4.51905e-06
 Reference value :  4.57410e-06
 Reference value :  4.75011e-06
 Reference value :  4.75020e-06
 Reference value :  4.75025e-06
 Reference value :  4.75054e-06
 Reference value :  4.75147e-06
 Reference value :  4.75311e-06
 Reference value :  4.75440e-06
 Reference value :  4.75643e-06
 Reference value :  4.76454e-06
 Reference value :  4.85271e-06
 Reference value :  5.00003e-06
 Reference value :  5.00010e-06
 Reference value :  5.00012e-06
 Reference value :  5.00059e-06
 Reference value :  5.00145e-06
 Reference value :  5.00245e-06
 Reference value :  5.00349e-06
 Reference value :  5.00466e-06
 Reference value :  5.00588e-06
 Reference value :  5.00872e-06
 Reference value :  5.01186e-06
 Reference value :  5.01440e-06
 Reference value :  5.01634e-06
 Reference value :  5.01867e-06
 Reference value :  5.02456e-06
 Reference value :  5.03546e-06
 Reference value :  5.04907e-06
 Reference value :  5.06196e-06
 Reference value :  5.08582e-06
 Reference value :  5.11721e-06
 Reference value :  5.13886e-06
 Reference value :  5.15469e-06
 Reference value :  5.18395e-06
 Reference value :  5.25010e-06
 Reference value :  5.25017e-06
 Reference value :  5.25022e-06
 Reference value :  5.25032e-06
 Reference value :  5.25054e-06
 Reference value :  5.25143e-06
 Reference value :  5.25309e-06
 Reference value :  5.25435e-06
 Reference value :  5.25638e-06
 Reference value :  5.26110e-06
 Reference value :  5.28254e-06
 Reference value :  5.43085e-06
 Reference value :  5.50003e-06
 Reference value :  5.50011e-06
 Reference value :  5.50022e-06
 Reference value :  5.50093e-06
 Reference value :  5.50245e-06
 Reference value :  5.50350e-06
 Reference value :  5.50488e-06
 Reference value :  5.50641e-06
 Reference value :  5.50826e-06
 Reference value :  5.51018e-06
 Reference value :  5.51243e-06
 Reference value :  5.54284e-06
 Reference value :  5.75010e-06
 Reference value :  5.75017e-06
 Reference value :  5.75025e-06
 Reference value :  5.75054e-06
 Reference value :  5.75099e-06
 Reference value :  5.75194e-06
 Reference value :  5.75382e-06
 Reference value :  5.75503e-06
 Reference value :  5.75643e-06
 Reference value :  5.75888e-06
 Reference value :  5.77067e-06
 Reference value :  5.85171e-06
 Reference value :  6.00001e-06
 Reference value :  6.00007e-06
 Reference value :  6.00012e-06
 Reference value :  6.00035e-06
 Reference value :  6.00145e-06
 Reference value :  6.00245e-06
 Reference value :  6.00349e-06
 Reference value :  6.00466e-06
 Reference value :  6.00659e-06
 Reference value :  6.01046e-06
 Reference value :  6.01186e-06
 Reference value :  6.01441e-06
 Reference value :  6.01634e-06
 Reference value :  6.02005e-06
 Reference value :  6.03007e-06
 Reference value :  6.04407e-06
 Reference value :  6.05799e-06
 Reference value :  6.07033e-06
 Reference value :  6.09835e-06
 Reference value :  6.12512e-06
 Reference value :  6.23115e-06
 Reference value :  6.25013e-06
 Reference value :  6.25020e-06
 Reference value :  6.25026e-06
 Reference value :  6.25054e-06
 Reference value :  6.25143e-06
 Reference value :  6.25309e-06
 Reference value :  6.25433e-06
 Reference value :  6.25643e-06
 Reference value :  6.26474e-06
 Reference value :  6.30485e-06
 Reference value :  6.50000e-06
 Reference value :  6.50007e-06
 Reference value :  6.50012e-06
 Reference value :  6.50035e-06
 Reference value :  6.50145e-06
 Reference value :  6.50244e-06
 Reference value :  6.50349e-06
 Reference value :  6.50471e-06
 Reference value :  6.50647e-06
 Reference value :  6.50834e-06
 Reference value :  6.51023e-06
 Reference value :  6.51255e-06
 Reference value :  6.52571e-06
 Reference value :  6.60701e-06
 Reference value :  6.75011e-06
 Reference value :  6.75020e-06
 Reference value :  6.75026e-06
 Reference value :  6.75054e-06
 Reference value :  6.75099e-06
 Reference value :  6.75194e-06
 Reference value :  6.75311e-06
 Reference value :  6.75440e-06
 Reference value :  6.75566e-06
 Reference value :  6.75644e-06
 Reference value :  6.75808e-06
 Reference value :  6.76192e-06
 Reference value :  6.78092e-06
 Reference value :  6.85134e-06
 Reference value :  7.00003e-06
 Reference value :  7.00011e-06
 Reference value :  7.00016e-06
 Reference value :  7.00059e-06
 Reference value :  7.00145e-06
 Reference value :  7.00245e-06
 Reference value :  7.00350e-06
 Reference value :  7.00459e-06
 Reference value :  7.00646e-06
 Reference value :  7.00970e-06
 Reference value :  7.01175e-06
 Reference value :  7.01294e-06
 Reference value :  7.01456e-06
 Reference value :  7.01655e-06
 Reference value :  7.01871e-06
 Reference value :  7.02149e-06
 Reference value :  7.02701e-06
 Reference value :  7.03854e-06
 Reference value :  7.07009e-06
 Reference value :  7.23471e-06
 Reference value :  7.25013e-06
 Reference value :  7.25021e-06
 Reference value :  7.25026e-06
 Reference value :  7.25054e-06
 Reference value :  7.25097e-06
 Reference value :  7.25193e-06
 Reference value :  7.25309e-06
 Reference value :  7.25435e-06
 Reference value :  7.25556e-06
 Reference value :  7.25718e-06
 Reference value :  7.26433e-06
 Reference value :  7.30233e-06
 Reference value :  7.50000e-06
 Reference value :  7.50007e-06
 Reference value :  7.50012e-06
 Reference value :  7.50035e-06
 Reference value :  7.50093e-06
 Reference value :  7.50145e-06
 Reference value :  7.50245e-06
 Reference value :  7.50350e-06
 Reference value :  7.50410e-06
 Reference value :  7.50570e-06
 Reference value :  7.50641e-06
 Reference value :  7.50828e-06
 Reference value :  7.51020e-06
 Reference value :  7.51126e-06
 Reference value :  7.51486e-06
 Reference value :  7.52692e-06
 Reference value :  7.57300e-06
 Reference value :  7.75010e-06
 Reference value :  7.75013e-06
 Reference value :  7.75017e-06
 Reference value :  7.75022e-06
 Reference value :  7.75032e-06
 Reference value :  7.75074e-06
 Reference value :  7.75194e-06
 Reference value :  7.75311e-06
 Reference value :  7.75440e-06
 Reference value :  7.75566e-06
 Reference value :  7.75643e-06
 Reference value :  7.75889e-06
 Reference value :  7.77068e-06
 Reference value :  7.85055e-06
 Reference value :  8.00001e-06
 Reference value :  8.00010e-06
 Reference value :  8.00016e-06
 Reference value :  8.00059e-06
 Reference value :  8.00145e-06
 Reference value :  8.00245e-06
 Reference value :  8.00349e-06
 Reference value :  8.00466e-06
 Reference value :  8.00588e-06
 Reference value :  8.00739e-06
 Reference value :  8.00899e-06
 Reference value :  8.01101e-06
 Reference value :  8.02573e-06
 Reference value :  8.14292e-06
 Reference value :  8.25010e-06
 Reference value :  8.25017e-06
 Reference value :  8.25021e-06
 Reference value :  8.25032e-06
 Reference value :  8.25060e-06
 Reference value :  8.25118e-06
 Reference value :  8.25205e-06
 Reference value :  8.25329e-06
 Reference value :  8.25503e-06
 Reference value :  8.25693e-06
 Reference value :  8.26020e-06
 Reference value :  8.29669e-06
No. of Data Rows : 1260
ngspice-44 done
