
Note: Compatibility modes selected: hs a


Circuit: ** sch_path: /home/ece/cace/sar-adc-using-sky130-pdk/runs/run_2025-09-13_01-46-53/parameters/dnl/run_3/sar_output_dnl.sch

option SCALE: Scale is set to 1e-06 for instance and model parameters
option SCALE: Scale is set to 1e-06 for instance and model parameters
option SCALE: Scale is set to 1e-06 for instance and model parameters
option SCALE: Scale is set to 1e-06 for instance and model parameters
Doing analysis at TEMP = 27.000000 and TNOM = 27.000000

Using KLU as Direct Linear Solver
Operating point simulation skipped by 'uic',
  now using transient initial conditions.
 Reference value :  1.00000e-12
 Reference value :  1.08400e-12
 Reference value :  3.12784e-12
 Reference value :  2.03248e-11
 Reference value :  1.00000e-10
 Reference value :  1.16436e-10
 Reference value :  2.69836e-10
 Reference value :  9.46631e-10
 Reference value :  2.44830e-09
 Reference value :  4.07818e-09
 Reference value :  5.03541e-09
 Reference value :  6.61745e-09
 Reference value :  9.09972e-09
 Reference value :  1.13367e-08
 Reference value :  1.41406e-08
 Reference value :  2.46135e-08
 Reference value :  3.79190e-08
 Reference value :  6.35478e-08
 Reference value :  2.50100e-07
 Reference value :  2.50170e-07
 Reference value :  2.50255e-07
 Reference value :  2.50550e-07
 Reference value :  2.51486e-07
 Reference value :  2.53135e-07
 Reference value :  2.55088e-07
 Reference value :  2.57819e-07
 Reference value :  2.64280e-07
 Reference value :  3.38972e-07
 Reference value :  5.00030e-07
 Reference value :  5.00108e-07
 Reference value :  5.00348e-07
 Reference value :  5.00857e-07
 Reference value :  5.01627e-07
 Reference value :  5.03085e-07
 Reference value :  5.04989e-07
 Reference value :  5.08675e-07
 Reference value :  5.11200e-07
 Reference value :  5.14157e-07
 Reference value :  5.33321e-07
 Reference value :  6.24600e-07
 Reference value :  6.43780e-07
 Reference value :  6.71945e-07
 Reference value :  7.49636e-07
 Reference value :  7.50170e-07
 Reference value :  7.50320e-07
 Reference value :  7.51576e-07
 Reference value :  7.53261e-07
 Reference value :  7.54374e-07
 Reference value :  7.55521e-07
 Reference value :  7.57082e-07
 Reference value :  7.60522e-07
 Reference value :  7.87868e-07
 Reference value :  1.00001e-06
 Reference value :  1.00011e-06
 Reference value :  1.00035e-06
 Reference value :  1.00119e-06
 Reference value :  1.00210e-06
 Reference value :  1.00308e-06
 Reference value :  1.00520e-06
 Reference value :  1.00808e-06
 Reference value :  1.01011e-06
 Reference value :  1.01201e-06
 Reference value :  1.01447e-06
 Reference value :  1.01535e-06
 Reference value :  1.01716e-06
 Reference value :  1.01917e-06
 Reference value :  1.03194e-06
 Reference value :  1.04372e-06
 Reference value :  1.04952e-06
 Reference value :  1.05349e-06
 Reference value :  1.06129e-06
 Reference value :  1.07380e-06
 Reference value :  1.09936e-06
 Reference value :  1.16787e-06
 Reference value :  1.25011e-06
 Reference value :  1.25020e-06
 Reference value :  1.25026e-06
 Reference value :  1.25070e-06
 Reference value :  1.25157e-06
 Reference value :  1.25252e-06
 Reference value :  1.25378e-06
 Reference value :  1.25503e-06
 Reference value :  1.25804e-06
 Reference value :  1.26592e-06
 Reference value :  1.36657e-06
 Reference value :  1.50001e-06
 Reference value :  1.50010e-06
 Reference value :  1.50016e-06
 Reference value :  1.50054e-06
 Reference value :  1.50086e-06
 Reference value :  1.50163e-06
 Reference value :  1.50307e-06
 Reference value :  1.50418e-06
 Reference value :  1.50568e-06
 Reference value :  1.50630e-06
 Reference value :  1.50794e-06
 Reference value :  1.50982e-06
 Reference value :  1.51208e-06
 Reference value :  1.52665e-06
 Reference value :  1.63368e-06
 Reference value :  1.75013e-06
 Reference value :  1.75021e-06
 Reference value :  1.75032e-06
 Reference value :  1.75110e-06
 Reference value :  1.75203e-06
 Reference value :  1.75325e-06
 Reference value :  1.75378e-06
 Reference value :  1.75491e-06
 Reference value :  1.75637e-06
 Reference value :  1.76131e-06
 Reference value :  1.80408e-06
 Reference value :  2.00001e-06
 Reference value :  2.00010e-06
 Reference value :  2.00016e-06
 Reference value :  2.00054e-06
 Reference value :  2.00119e-06
 Reference value :  2.00210e-06
 Reference value :  2.00307e-06
 Reference value :  2.00473e-06
 Reference value :  2.00580e-06
 Reference value :  2.00866e-06
 Reference value :  2.01029e-06
 Reference value :  2.01341e-06
 Reference value :  2.01557e-06
 Reference value :  2.01755e-06
 Reference value :  2.02189e-06
 Reference value :  2.05590e-06
 Reference value :  2.25010e-06
 Reference value :  2.25020e-06
 Reference value :  2.25032e-06
 Reference value :  2.25157e-06
 Reference value :  2.25251e-06
 Reference value :  2.25378e-06
 Reference value :  2.25503e-06
 Reference value :  2.25647e-06
 Reference value :  2.26257e-06
 Reference value :  2.28593e-06
 Reference value :  2.47279e-06
 Reference value :  2.50003e-06
 Reference value :  2.50011e-06
 Reference value :  2.50016e-06
 Reference value :  2.50054e-06
 Reference value :  2.50086e-06
 Reference value :  2.50163e-06
 Reference value :  2.50306e-06
 Reference value :  2.50489e-06
 Reference value :  2.50630e-06
 Reference value :  2.50794e-06
 Reference value :  2.51093e-06
 Reference value :  2.52660e-06
 Reference value :  2.75010e-06
 Reference value :  2.75020e-06
 Reference value :  2.75032e-06
 Reference value :  2.75110e-06
 Reference value :  2.75203e-06
 Reference value :  2.75325e-06
 Reference value :  2.75436e-06
 Reference value :  2.75635e-06
 Reference value :  2.77005e-06
 Reference value :  3.00000e-06
 Reference value :  3.00010e-06
 Reference value :  3.00035e-06
 Reference value :  3.00119e-06
 Reference value :  3.00258e-06
 Reference value :  3.00364e-06
 Reference value :  3.00524e-06
 Reference value :  3.00866e-06
 Reference value :  3.01187e-06
 Reference value :  3.01557e-06
 Reference value :  3.01868e-06
 Reference value :  3.03924e-06
 Reference value :  3.19124e-06
 Reference value :  3.25020e-06
 Reference value :  3.25070e-06
 Reference value :  3.25251e-06
 Reference value :  3.25438e-06
 Reference value :  3.25647e-06
 Reference value :  3.28587e-06
 Reference value :  3.50001e-06
 Reference value :  3.50012e-06
 Reference value :  3.50086e-06
 Reference value :  3.50210e-06
 Reference value :  3.50363e-06
 Reference value :  3.50630e-06
 Reference value :  3.50794e-06
 Reference value :  3.51093e-06
 Reference value :  3.52657e-06
 Reference value :  3.75010e-06
 Reference value :  3.75017e-06
 Reference value :  3.75022e-06
 Reference value :  3.75045e-06
 Reference value :  3.75157e-06
 Reference value :  3.75251e-06
 Reference value :  3.75377e-06
 Reference value :  3.75490e-06
 Reference value :  3.75634e-06
 Reference value :  3.76126e-06
 Reference value :  3.80315e-06
 Reference value :  4.00001e-06
 Reference value :  4.00010e-06
 Reference value :  4.00016e-06
 Reference value :  4.00054e-06
 Reference value :  4.00119e-06
 Reference value :  4.00210e-06
 Reference value :  4.00307e-06
 Reference value :  4.00418e-06
 Reference value :  4.00524e-06
 Reference value :  4.00732e-06
 Reference value :  4.01029e-06
 Reference value :  4.01341e-06
 Reference value :  4.01558e-06
 Reference value :  4.01755e-06
 Reference value :  4.02190e-06
 Reference value :  4.04911e-06
 Reference value :  4.06684e-06
 Reference value :  4.08130e-06
 Reference value :  4.08562e-06
 Reference value :  4.09309e-06
 Reference value :  4.11114e-06
 Reference value :  4.16504e-06
 Reference value :  4.25011e-06
 Reference value :  4.25021e-06
 Reference value :  4.25032e-06
 Reference value :  4.25109e-06
 Reference value :  4.25251e-06
 Reference value :  4.25378e-06
 Reference value :  4.25567e-06
 Reference value :  4.26256e-06
 Reference value :  4.31227e-06
 Reference value :  4.50001e-06
 Reference value :  4.50010e-06
 Reference value :  4.50016e-06
 Reference value :  4.50086e-06
 Reference value :  4.50210e-06
 Reference value :  4.50363e-06
 Reference value :  4.50569e-06
 Reference value :  4.50630e-06
 Reference value :  4.50794e-06
 Reference value :  4.50983e-06
 Reference value :  4.51210e-06
 Reference value :  4.52655e-06
 Reference value :  4.63238e-06
 Reference value :  4.75011e-06
 Reference value :  4.75017e-06
 Reference value :  4.75022e-06
 Reference value :  4.75032e-06
 Reference value :  4.75070e-06
 Reference value :  4.75156e-06
 Reference value :  4.75251e-06
 Reference value :  4.75377e-06
 Reference value :  4.75490e-06
 Reference value :  4.75634e-06
 Reference value :  4.76447e-06
 Reference value :  4.93503e-06
 Reference value :  5.00003e-06
 Reference value :  5.00012e-06
 Reference value :  5.00035e-06
 Reference value :  5.00086e-06
 Reference value :  5.00163e-06
 Reference value :  5.00307e-06
 Reference value :  5.00418e-06
 Reference value :  5.00524e-06
 Reference value :  5.00649e-06
 Reference value :  5.01029e-06
 Reference value :  5.01341e-06
 Reference value :  5.01558e-06
 Reference value :  5.01648e-06
 Reference value :  5.01869e-06
 Reference value :  5.02444e-06
 Reference value :  5.03554e-06
 Reference value :  5.04766e-06
 Reference value :  5.06073e-06
 Reference value :  5.07412e-06
 Reference value :  5.09124e-06
 Reference value :  5.12137e-06
 Reference value :  5.13450e-06
 Reference value :  5.14294e-06
 Reference value :  5.17292e-06
 Reference value :  5.23346e-06
 Reference value :  5.25011e-06
 Reference value :  5.25017e-06
 Reference value :  5.25022e-06
 Reference value :  5.25032e-06
 Reference value :  5.25070e-06
 Reference value :  5.25156e-06
 Reference value :  5.25202e-06
 Reference value :  5.25323e-06
 Reference value :  5.25377e-06
 Reference value :  5.25501e-06
 Reference value :  5.25646e-06
 Reference value :  5.26255e-06
 Reference value :  5.28565e-06
 Reference value :  5.47047e-06
 Reference value :  5.50003e-06
 Reference value :  5.50011e-06
 Reference value :  5.50022e-06
 Reference value :  5.50086e-06
 Reference value :  5.50163e-06
 Reference value :  5.50306e-06
 Reference value :  5.50418e-06
 Reference value :  5.50569e-06
 Reference value :  5.50630e-06
 Reference value :  5.50794e-06
 Reference value :  5.50983e-06
 Reference value :  5.51210e-06
 Reference value :  5.52653e-06
 Reference value :  5.63218e-06
 Reference value :  5.75013e-06
 Reference value :  5.75021e-06
 Reference value :  5.75032e-06
 Reference value :  5.75109e-06
 Reference value :  5.75203e-06
 Reference value :  5.75324e-06
 Reference value :  5.75377e-06
 Reference value :  5.75490e-06
 Reference value :  5.75634e-06
 Reference value :  5.76445e-06
 Reference value :  5.84668e-06
 Reference value :  6.00001e-06
 Reference value :  6.00010e-06
 Reference value :  6.00016e-06
 Reference value :  6.00054e-06
 Reference value :  6.00119e-06
 Reference value :  6.00209e-06
 Reference value :  6.00307e-06
 Reference value :  6.00418e-06
 Reference value :  6.00524e-06
 Reference value :  6.00732e-06
 Reference value :  6.01029e-06
 Reference value :  6.01341e-06
 Reference value :  6.01455e-06
 Reference value :  6.01649e-06
 Reference value :  6.01870e-06
 Reference value :  6.02193e-06
 Reference value :  6.03472e-06
 Reference value :  6.05033e-06
 Reference value :  6.06284e-06
 Reference value :  6.07973e-06
 Reference value :  6.11191e-06
 Reference value :  6.25010e-06
 Reference value :  6.25017e-06
 Reference value :  6.25022e-06
 Reference value :  6.25045e-06
 Reference value :  6.25156e-06
 Reference value :  6.25251e-06
 Reference value :  6.25375e-06
 Reference value :  6.25569e-06
 Reference value :  6.25967e-06
 Reference value :  6.28588e-06
 Reference value :  6.50000e-06
 Reference value :  6.50010e-06
 Reference value :  6.50016e-06
 Reference value :  6.50086e-06
 Reference value :  6.50204e-06
 Reference value :  6.50356e-06
 Reference value :  6.50562e-06
 Reference value :  6.50695e-06
 Reference value :  6.50986e-06
 Reference value :  6.51905e-06
 Reference value :  6.62569e-06
 Reference value :  6.75013e-06
 Reference value :  6.75026e-06
 Reference value :  6.75109e-06
 Reference value :  6.75203e-06
 Reference value :  6.75376e-06
 Reference value :  6.75548e-06
 Reference value :  6.75704e-06
 Reference value :  6.76040e-06
 Reference value :  6.78445e-06
 Reference value :  7.00001e-06
 Reference value :  7.00011e-06
 Reference value :  7.00035e-06
 Reference value :  7.00119e-06
 Reference value :  7.00258e-06
 Reference value :  7.00419e-06
 Reference value :  7.00519e-06
 Reference value :  7.00640e-06
 Reference value :  7.00807e-06
 Reference value :  7.01010e-06
 Reference value :  7.01197e-06
 Reference value :  7.01369e-06
 Reference value :  7.01529e-06
 Reference value :  7.01811e-06
 Reference value :  7.02270e-06
 Reference value :  7.03936e-06
 Reference value :  7.08235e-06
 Reference value :  7.12020e-06
 Reference value :  7.19011e-06
 Reference value :  7.25011e-06
 Reference value :  7.25020e-06
 Reference value :  7.25032e-06
 Reference value :  7.25109e-06
 Reference value :  7.25251e-06
 Reference value :  7.25377e-06
 Reference value :  7.25501e-06
 Reference value :  7.25803e-06
 Reference value :  7.27238e-06
 Reference value :  7.46961e-06
 Reference value :  7.50003e-06
 Reference value :  7.50011e-06
 Reference value :  7.50022e-06
 Reference value :  7.50086e-06
 Reference value :  7.50163e-06
 Reference value :  7.50258e-06
 Reference value :  7.50307e-06
 Reference value :  7.50418e-06
 Reference value :  7.50568e-06
 Reference value :  7.50630e-06
 Reference value :  7.50794e-06
 Reference value :  7.50982e-06
 Reference value :  7.51210e-06
 Reference value :  7.52650e-06
 Reference value :  7.63194e-06
 Reference value :  7.75013e-06
 Reference value :  7.75021e-06
 Reference value :  7.75032e-06
 Reference value :  7.75109e-06
 Reference value :  7.75251e-06
 Reference value :  7.75436e-06
 Reference value :  7.75633e-06
 Reference value :  7.76443e-06
 Reference value :  7.93386e-06
 Reference value :  8.00007e-06
 Reference value :  8.00016e-06
 Reference value :  8.00054e-06
 Reference value :  8.00119e-06
 Reference value :  8.00210e-06
 Reference value :  8.00307e-06
 Reference value :  8.00474e-06
 Reference value :  8.00582e-06
 Reference value :  8.00737e-06
 Reference value :  8.00904e-06
 Reference value :  8.01782e-06
 Reference value :  8.13382e-06
 Reference value :  8.25013e-06
 Reference value :  8.25021e-06
 Reference value :  8.25032e-06
 Reference value :  8.25070e-06
 Reference value :  8.25156e-06
 Reference value :  8.25251e-06
 Reference value :  8.25392e-06
 Reference value :  8.25575e-06
 Reference value :  8.25837e-06
 Reference value :  8.26681e-06
 Reference value :  8.31911e-06
 Reference value :  8.50000e-06
 Reference value :  8.50000e-06
 Reference value :  8.50000e-06
 Reference value :  8.50001e-06
 Reference value :  8.50004e-06
 Reference value :  8.50011e-06
 Reference value :  8.50027e-06
 Reference value :  8.50073e-06
 Reference value :  8.50162e-06
 Reference value :  8.50204e-06
 Reference value :  8.50306e-06
 Reference value :  8.50415e-06
 Reference value :  8.50518e-06
 Reference value :  8.50788e-06
 Reference value :  8.52285e-06
 Reference value :  8.52909e-06
 Reference value :  8.53697e-06
 Reference value :  8.54051e-06
 Reference value :  8.54605e-06
 Reference value :  8.55527e-06
 Reference value :  8.56934e-06
 Reference value :  8.60680e-06
 Reference value :  8.69155e-06
 Reference value :  8.75011e-06
 Reference value :  8.75020e-06
 Reference value :  8.75026e-06
 Reference value :  8.75045e-06
 Reference value :  8.75156e-06
 Reference value :  8.75251e-06
 Reference value :  8.75376e-06
 Reference value :  8.75496e-06
 Reference value :  8.75792e-06
 Reference value :  8.78429e-06
 Reference value :  9.00000e-06
 Reference value :  9.00007e-06
 Reference value :  9.00012e-06
 Reference value :  9.00035e-06
 Reference value :  9.00086e-06
 Reference value :  9.00163e-06
 Reference value :  9.00306e-06
 Reference value :  9.00485e-06
 Reference value :  9.00866e-06
 Reference value :  9.01132e-06
 Reference value :  9.01265e-06
 Reference value :  9.01789e-06
 Reference value :  9.03355e-06
 Reference value :  9.12873e-06
 Reference value :  9.25011e-06
 Reference value :  9.25020e-06
 Reference value :  9.25026e-06
 Reference value :  9.25070e-06
 Reference value :  9.25203e-06
 Reference value :  9.25323e-06
 Reference value :  9.25434e-06
 Reference value :  9.25546e-06
 Reference value :  9.25634e-06
 Reference value :  9.25899e-06
 Reference value :  9.26996e-06
 Reference value :  9.28868e-06
 Reference value :  9.29714e-06
 Reference value :  9.30345e-06
 Reference value :  9.30773e-06
 Reference value :  9.31756e-06
 Reference value :  9.33738e-06
 Reference value :  9.38883e-06
 Reference value :  9.44834e-06
 Reference value :  9.50003e-06
 Reference value :  9.50012e-06
 Reference value :  9.50035e-06
 Reference value :  9.50086e-06
 Reference value :  9.50162e-06
 Reference value :  9.50308e-06
 Reference value :  9.50419e-06
 Reference value :  9.50520e-06
 Reference value :  9.50711e-06
 Reference value :  9.50921e-06
 Reference value :  9.51106e-06
 Reference value :  9.51198e-06
 Reference value :  9.51371e-06
 Reference value :  9.51531e-06
 Reference value :  9.51718e-06
 Reference value :  9.51922e-06
 Reference value :  9.52601e-06
 Reference value :  9.54257e-06
 Reference value :  9.55038e-06
 Reference value :  9.56248e-06
 Reference value :  9.57619e-06
 Reference value :  9.59301e-06
 Reference value :  9.62000e-06
 Reference value :  9.69001e-06
 Reference value :  9.75011e-06
 Reference value :  9.75017e-06
 Reference value :  9.75021e-06
 Reference value :  9.75032e-06
 Reference value :  9.75070e-06
 Reference value :  9.75156e-06
 Reference value :  9.75251e-06
 Reference value :  9.75377e-06
 Reference value :  9.75500e-06
 Reference value :  9.75644e-06
 Reference value :  9.75963e-06
 Reference value :  9.76578e-06
 Reference value :  9.78543e-06
 Reference value :  9.86403e-06
 Reference value :  1.00000e-05
 Reference value :  1.00000e-05
 Reference value :  1.00001e-05
 Reference value :  1.00001e-05
 Reference value :  1.00002e-05
 Reference value :  1.00005e-05
 Reference value :  1.00009e-05
 Reference value :  1.00016e-05
 Reference value :  1.00026e-05
 Reference value :  1.00031e-05
 Reference value :  1.00042e-05
 Reference value :  1.00057e-05
 Reference value :  1.00063e-05
 Reference value :  1.00079e-05
 Reference value :  1.00098e-05
 Reference value :  1.00109e-05
 Reference value :  1.00190e-05
 Reference value :  1.00717e-05
 Reference value :  1.02501e-05
 Reference value :  1.02502e-05
 Reference value :  1.02502e-05
 Reference value :  1.02503e-05
 Reference value :  1.02507e-05
 Reference value :  1.02516e-05
 Reference value :  1.02520e-05
 Reference value :  1.02532e-05
 Reference value :  1.02538e-05
 Reference value :  1.02549e-05
 Reference value :  1.02563e-05
 Reference value :  1.02612e-05
 Reference value :  1.02810e-05
 Reference value :  1.04352e-05
 Reference value :  1.05000e-05
 Reference value :  1.05001e-05
 Reference value :  1.05002e-05
 Reference value :  1.05009e-05
 Reference value :  1.05016e-05
 Reference value :  1.05031e-05
 Reference value :  1.05042e-05
 Reference value :  1.05052e-05
 Reference value :  1.05065e-05
 Reference value :  1.05087e-05
 Reference value :  1.05103e-05
 Reference value :  1.05134e-05
 Reference value :  1.05145e-05
 Reference value :  1.05165e-05
 Reference value :  1.05187e-05
 Reference value :  1.05243e-05
 Reference value :  1.05511e-05
 Reference value :  1.06798e-05
 Reference value :  1.07501e-05
 Reference value :  1.07502e-05
 Reference value :  1.07503e-05
 Reference value :  1.07511e-05
 Reference value :  1.07520e-05
 Reference value :  1.07532e-05
 Reference value :  1.07544e-05
 Reference value :  1.07557e-05
 Reference value :  1.07597e-05
 Reference value :  1.07856e-05
 Reference value :  1.10000e-05
 Reference value :  1.10001e-05
 Reference value :  1.10001e-05
 Reference value :  1.10003e-05
 Reference value :  1.10009e-05
 Reference value :  1.10016e-05
 Reference value :  1.10031e-05
 Reference value :  1.10042e-05
 Reference value :  1.10057e-05
 Reference value :  1.10070e-05
 Reference value :  1.10089e-05
 Reference value :  1.10122e-05
 Reference value :  1.10261e-05
 Reference value :  1.12419e-05
 Reference value :  1.12501e-05
 Reference value :  1.12502e-05
 Reference value :  1.12503e-05
 Reference value :  1.12511e-05
 Reference value :  1.12520e-05
 Reference value :  1.12532e-05
 Reference value :  1.12538e-05
 Reference value :  1.12549e-05
 Reference value :  1.12563e-05
 Reference value :  1.12613e-05
 Reference value :  1.12811e-05
 Reference value :  1.14360e-05
 Reference value :  1.15000e-05
 Reference value :  1.15001e-05
 Reference value :  1.15001e-05
 Reference value :  1.15003e-05
 Reference value :  1.15009e-05
 Reference value :  1.15016e-05
 Reference value :  1.15031e-05
 Reference value :  1.15047e-05
 Reference value :  1.15058e-05
 Reference value :  1.15087e-05
 Reference value :  1.15119e-05
 Reference value :  1.15145e-05
 Reference value :  1.15165e-05
 Reference value :  1.15199e-05
 Reference value :  1.15376e-05
 Reference value :  1.16433e-05
 Reference value :  1.17501e-05
 Reference value :  1.17502e-05
 Reference value :  1.17504e-05
 Reference value :  1.17511e-05
 Reference value :  1.17520e-05
 Reference value :  1.17532e-05
 Reference value :  1.17538e-05
 Reference value :  1.17550e-05
 Reference value :  1.17580e-05
 Reference value :  1.17724e-05
 Reference value :  1.19702e-05
 Reference value :  1.20001e-05
 Reference value :  1.20002e-05
 Reference value :  1.20009e-05
 Reference value :  1.20021e-05
 Reference value :  1.20031e-05
 Reference value :  1.20042e-05
 Reference value :  1.20057e-05
 Reference value :  1.20070e-05
 Reference value :  1.20089e-05
 Reference value :  1.20122e-05
 Reference value :  1.20693e-05
 Reference value :  1.22501e-05
 Reference value :  1.22502e-05
 Reference value :  1.22503e-05
 Reference value :  1.22511e-05
 Reference value :  1.22520e-05
 Reference value :  1.22532e-05
 Reference value :  1.22538e-05
 Reference value :  1.22549e-05
 Reference value :  1.22563e-05
 Reference value :  1.22613e-05
 Reference value :  1.22811e-05
 Reference value :  1.23475e-05
 Reference value :  1.25000e-05
 Reference value :  1.25001e-05
 Reference value :  1.25002e-05
 Reference value :  1.25005e-05
 Reference value :  1.25012e-05
 Reference value :  1.25021e-05
 Reference value :  1.25031e-05
 Reference value :  1.25042e-05
 Reference value :  1.25052e-05
 Reference value :  1.25065e-05
 Reference value :  1.25103e-05
 Reference value :  1.25134e-05
 Reference value :  1.25145e-05
 Reference value :  1.25165e-05
 Reference value :  1.25187e-05
 Reference value :  1.25219e-05
 Reference value :  1.25376e-05
 Reference value :  1.25478e-05
 Reference value :  1.25594e-05
 Reference value :  1.25681e-05
 Reference value :  1.25824e-05
 Reference value :  1.25920e-05
 Reference value :  1.26230e-05
 Reference value :  1.26408e-05
 Reference value :  1.26781e-05
 Reference value :  1.27501e-05
 Reference value :  1.27502e-05
 Reference value :  1.27502e-05
 Reference value :  1.27504e-05
 Reference value :  1.27516e-05
 Reference value :  1.27525e-05
 Reference value :  1.27538e-05
 Reference value :  1.27550e-05
 Reference value :  1.27565e-05
 Reference value :  1.27625e-05
 Reference value :  1.27856e-05
 Reference value :  1.29702e-05
 Reference value :  1.30000e-05
 Reference value :  1.30001e-05
 Reference value :  1.30002e-05
 Reference value :  1.30009e-05
 Reference value :  1.30016e-05
 Reference value :  1.30026e-05
 Reference value :  1.30031e-05
 Reference value :  1.30042e-05
 Reference value :  1.30057e-05
 Reference value :  1.30063e-05
 Reference value :  1.30079e-05
 Reference value :  1.30098e-05
 Reference value :  1.30144e-05
 Reference value :  1.30405e-05
 Reference value :  1.32501e-05
 Reference value :  1.32502e-05
 Reference value :  1.32502e-05
 Reference value :  1.32503e-05
 Reference value :  1.32507e-05
 Reference value :  1.32520e-05
 Reference value :  1.32532e-05
 Reference value :  1.32544e-05
 Reference value :  1.32555e-05
 Reference value :  1.32590e-05
 Reference value :  1.33032e-05
 Reference value :  1.35000e-05
 Reference value :  1.35001e-05
 Reference value :  1.35002e-05
 Reference value :  1.35009e-05
 Reference value :  1.35021e-05
 Reference value :  1.35031e-05
 Reference value :  1.35047e-05
 Reference value :  1.35065e-05
 Reference value :  1.35103e-05
 Reference value :  1.35134e-05
 Reference value :  1.35145e-05
 Reference value :  1.35165e-05
 Reference value :  1.35187e-05
 Reference value :  1.35243e-05
 Reference value :  1.35348e-05
 Reference value :  1.35474e-05
 Reference value :  1.35594e-05
 Reference value :  1.35824e-05
 Reference value :  1.36028e-05
 Reference value :  1.36165e-05
 Reference value :  1.36261e-05
 Reference value :  1.36439e-05
 Reference value :  1.36929e-05
 Reference value :  1.37501e-05
 Reference value :  1.37502e-05
 Reference value :  1.37502e-05
 Reference value :  1.37504e-05
 Reference value :  1.37511e-05
 Reference value :  1.37520e-05
 Reference value :  1.37532e-05
 Reference value :  1.37538e-05
 Reference value :  1.37550e-05
 Reference value :  1.37565e-05
 Reference value :  1.37625e-05
 Reference value :  1.37856e-05
 Reference value :  1.40000e-05
 Reference value :  1.40001e-05
 Reference value :  1.40002e-05
 Reference value :  1.40005e-05
 Reference value :  1.40012e-05
 Reference value :  1.40026e-05
 Reference value :  1.40036e-05
 Reference value :  1.40057e-05
 Reference value :  1.40070e-05
 Reference value :  1.40089e-05
 Reference value :  1.40122e-05
 Reference value :  1.40405e-05
 Reference value :  1.42501e-05
 Reference value :  1.42502e-05
 Reference value :  1.42503e-05
 Reference value :  1.42507e-05
 Reference value :  1.42520e-05
 Reference value :  1.42538e-05
 Reference value :  1.42549e-05
 Reference value :  1.42563e-05
 Reference value :  1.42645e-05
 Reference value :  1.44361e-05
 Reference value :  1.45001e-05
 Reference value :  1.45002e-05
 Reference value :  1.45005e-05
 Reference value :  1.45012e-05
 Reference value :  1.45021e-05
 Reference value :  1.45031e-05
 Reference value :  1.45047e-05
 Reference value :  1.45058e-05
 Reference value :  1.45087e-05
 Reference value :  1.45119e-05
 Reference value :  1.45146e-05
 Reference value :  1.45165e-05
 Reference value :  1.45187e-05
 Reference value :  1.45245e-05
 Reference value :  1.45357e-05
 Reference value :  1.45493e-05
 Reference value :  1.45638e-05
 Reference value :  1.45944e-05
 Reference value :  1.46270e-05
 Reference value :  1.47501e-05
 Reference value :  1.47502e-05
 Reference value :  1.47502e-05
 Reference value :  1.47504e-05
 Reference value :  1.47511e-05
 Reference value :  1.47520e-05
 Reference value :  1.47532e-05
 Reference value :  1.47537e-05
 Reference value :  1.47550e-05
 Reference value :  1.47580e-05
 Reference value :  1.47658e-05
 Reference value :  1.48119e-05
 Reference value :  1.50000e-05
 Reference value :  1.50000e-05
 Reference value :  1.50001e-05
 Reference value :  1.50002e-05
 Reference value :  1.50005e-05
 Reference value :  1.50012e-05
 Reference value :  1.50020e-05
 Reference value :  1.50030e-05
 Reference value :  1.50041e-05
 Reference value :  1.50056e-05
 Reference value :  1.50062e-05
 Reference value :  1.50079e-05
 Reference value :  1.50099e-05
 Reference value :  1.50122e-05
 Reference value :  1.50262e-05
 Reference value :  1.51258e-05
 Reference value :  1.52501e-05
 Reference value :  1.52502e-05
 Reference value :  1.52502e-05
 Reference value :  1.52504e-05
 Reference value :  1.52511e-05
 Reference value :  1.52520e-05
 Reference value :  1.52532e-05
 Reference value :  1.52538e-05
 Reference value :  1.52549e-05
 Reference value :  1.52562e-05
 Reference value :  1.52589e-05
 Reference value :  1.52647e-05
 Reference value :  1.53016e-05
 Reference value :  1.55015e-05
 Reference value :  1.55046e-05
 Reference value :  1.55062e-05
 Reference value :  1.55090e-05
 Reference value :  1.55113e-05
 Reference value :  1.55123e-05
 Reference value :  1.55143e-05
 Reference value :  1.55161e-05
 Reference value :  1.55180e-05
 Reference value :  1.55201e-05
 Reference value :  1.55278e-05
 Reference value :  1.55395e-05
 Reference value :  1.55559e-05
 Reference value :  1.55825e-05
 Reference value :  1.56408e-05
 Reference value :  1.57501e-05
 Reference value :  1.57502e-05
 Reference value :  1.57503e-05
 Reference value :  1.57507e-05
 Reference value :  1.57516e-05
 Reference value :  1.57525e-05
 Reference value :  1.57537e-05
 Reference value :  1.57549e-05
 Reference value :  1.57577e-05
 Reference value :  1.57651e-05
 Reference value :  1.58592e-05
 Reference value :  1.60000e-05
 Reference value :  1.60001e-05
 Reference value :  1.60001e-05
 Reference value :  1.60003e-05
 Reference value :  1.60009e-05
 Reference value :  1.60016e-05
 Reference value :  1.60026e-05
 Reference value :  1.60031e-05
 Reference value :  1.60042e-05
 Reference value :  1.60057e-05
 Reference value :  1.60063e-05
 Reference value :  1.60079e-05
 Reference value :  1.60098e-05
 Reference value :  1.60121e-05
 Reference value :  1.60265e-05
 Reference value :  1.61318e-05
 Reference value :  1.62501e-05
 Reference value :  1.62502e-05
 Reference value :  1.62503e-05
 Reference value :  1.62511e-05
 Reference value :  1.62520e-05
 Reference value :  1.62532e-05
 Reference value :  1.62544e-05
 Reference value :  1.62555e-05
 Reference value :  1.62590e-05
 Reference value :  1.63026e-05
 Reference value :  1.65000e-05
 Reference value :  1.65001e-05
 Reference value :  1.65002e-05
 Reference value :  1.65009e-05
 Reference value :  1.65016e-05
 Reference value :  1.65031e-05
 Reference value :  1.65042e-05
 Reference value :  1.65053e-05
 Reference value :  1.65074e-05
 Reference value :  1.65090e-05
 Reference value :  1.65134e-05
 Reference value :  1.65718e-05
 Reference value :  1.67501e-05
 Reference value :  1.67502e-05
 Reference value :  1.67504e-05
 Reference value :  1.67516e-05
 Reference value :  1.67525e-05
 Reference value :  1.67539e-05
 Reference value :  1.67568e-05
 Reference value :  1.67631e-05
 Reference value :  1.68191e-05
 Reference value :  1.70000e-05
 Reference value :  1.70000e-05
 Reference value :  1.70000e-05
 Reference value :  1.70000e-05
 Reference value :  1.70001e-05
 Reference value :  1.70002e-05
 Reference value :  1.70007e-05
 Reference value :  1.70020e-05
 Reference value :  1.70031e-05
 Reference value :  1.70042e-05
 Reference value :  1.70046e-05
 Reference value :  1.70058e-05
 Reference value :  1.70095e-05
 Reference value :  1.70228e-05
 Reference value :  1.70291e-05
 Reference value :  1.70334e-05
 Reference value :  1.70388e-05
 Reference value :  1.70443e-05
 Reference value :  1.70521e-05
 Reference value :  1.70601e-05
 Reference value :  1.70951e-05
 Reference value :  1.71662e-05
 Reference value :  1.72501e-05
 Reference value :  1.72502e-05
 Reference value :  1.72503e-05
 Reference value :  1.72516e-05
 Reference value :  1.72532e-05
 Reference value :  1.72544e-05
 Reference value :  1.72556e-05
 Reference value :  1.72654e-05
 Reference value :  1.73596e-05
 Reference value :  1.75000e-05
 Reference value :  1.75001e-05
 Reference value :  1.75003e-05
 Reference value :  1.75009e-05
 Reference value :  1.75021e-05
 Reference value :  1.75036e-05
 Reference value :  1.75069e-05
 Reference value :  1.75113e-05
 Reference value :  1.75161e-05
 Reference value :  1.75491e-05
 Reference value :  1.77501e-05
 Reference value :  1.77502e-05
 Reference value :  1.77503e-05
 Reference value :  1.77516e-05
 Reference value :  1.77532e-05
 Reference value :  1.77543e-05
 Reference value :  1.77555e-05
 Reference value :  1.77572e-05
 Reference value :  1.77645e-05
 Reference value :  1.77941e-05
 Reference value :  1.78182e-05
 Reference value :  1.78259e-05
 Reference value :  1.78338e-05
 Reference value :  1.78416e-05
 Reference value :  1.78691e-05
 Reference value :  1.79556e-05
 Reference value :  1.80001e-05
 Reference value :  1.80004e-05
 Reference value :  1.80011e-05
 Reference value :  1.80024e-05
 Reference value :  1.80035e-05
 Reference value :  1.80050e-05
 Reference value :  1.80069e-05
 Reference value :  1.80091e-05
 Reference value :  1.80100e-05
 Reference value :  1.80119e-05
 Reference value :  1.80136e-05
 Reference value :  1.80152e-05
 Reference value :  1.80170e-05
 Reference value :  1.80190e-05
 Reference value :  1.80257e-05
 Reference value :  1.80449e-05
 Reference value :  1.80529e-05
 Reference value :  1.80698e-05
 Reference value :  1.80964e-05
 Reference value :  1.82178e-05
 Reference value :  1.82502e-05
 Reference value :  1.82503e-05
 Reference value :  1.82507e-05
 Reference value :  1.82520e-05
 Reference value :  1.82538e-05
 Reference value :  1.82550e-05
 Reference value :  1.82580e-05
 Reference value :  1.82724e-05
 Reference value :  1.83645e-05
 Reference value :  1.85000e-05
 Reference value :  1.85001e-05
 Reference value :  1.85002e-05
 Reference value :  1.85009e-05
 Reference value :  1.85016e-05
 Reference value :  1.85031e-05
 Reference value :  1.85049e-05
 Reference value :  1.85063e-05
 Reference value :  1.85079e-05
 Reference value :  1.85109e-05
 Reference value :  1.85265e-05
 Reference value :  1.87501e-05
 Reference value :  1.87502e-05
 Reference value :  1.87502e-05
 Reference value :  1.87504e-05
 Reference value :  1.87511e-05
 Reference value :  1.87520e-05
 Reference value :  1.87538e-05
 Reference value :  1.87549e-05
 Reference value :  1.87563e-05
 Reference value :  1.87612e-05
 Reference value :  1.88030e-05
 Reference value :  1.90000e-05
 Reference value :  1.90001e-05
 Reference value :  1.90002e-05
 Reference value :  1.90009e-05
 Reference value :  1.90016e-05
 Reference value :  1.90026e-05
 Reference value :  1.90036e-05
 Reference value :  1.90052e-05
 Reference value :  1.90087e-05
 Reference value :  1.90119e-05
 Reference value :  1.90145e-05
 Reference value :  1.90165e-05
 Reference value :  1.90187e-05
 Reference value :  1.90292e-05
 Reference value :  1.91094e-05
 Reference value :  1.92501e-05
 Reference value :  1.92502e-05
 Reference value :  1.92503e-05
 Reference value :  1.92511e-05
 Reference value :  1.92520e-05
 Reference value :  1.92532e-05
 Reference value :  1.92544e-05
 Reference value :  1.92557e-05
 Reference value :  1.92625e-05
 Reference value :  1.92724e-05
 Reference value :  1.93645e-05
 Reference value :  1.95000e-05
 Reference value :  1.95005e-05
 Reference value :  1.95021e-05
 Reference value :  1.95031e-05
 Reference value :  1.95042e-05
 Reference value :  1.95057e-05
 Reference value :  1.95064e-05
 Reference value :  1.95080e-05
 Reference value :  1.95099e-05
 Reference value :  1.95121e-05
 Reference value :  1.95269e-05
 Reference value :  1.96368e-05
 Reference value :  1.97501e-05
 Reference value :  1.97502e-05
 Reference value :  1.97504e-05
 Reference value :  1.97516e-05
 Reference value :  1.97525e-05
 Reference value :  1.97538e-05
 Reference value :  1.97549e-05
 Reference value :  1.97563e-05
 Reference value :  1.97613e-05
 Reference value :  1.97812e-05
 Reference value :  1.99366e-05
 Reference value :  2.00000e-05
 Reference value :  2.00001e-05
 Reference value :  2.00002e-05
 Reference value :  2.00009e-05
 Reference value :  2.00016e-05
 Reference value :  2.00026e-05
 Reference value :  2.00031e-05
 Reference value :  2.00047e-05
 Reference value :  2.00058e-05
 Reference value :  2.00087e-05
 Reference value :  2.00119e-05
 Reference value :  2.00145e-05
 Reference value :  2.00165e-05
 Reference value :  2.00187e-05
 Reference value :  2.00243e-05
 Reference value :  2.00512e-05
 Reference value :  2.01450e-05
 Reference value :  2.02501e-05
 Reference value :  2.02502e-05
 Reference value :  2.02503e-05
 Reference value :  2.02511e-05
 Reference value :  2.02520e-05
 Reference value :  2.02538e-05
 Reference value :  2.02550e-05
 Reference value :  2.02580e-05
 Reference value :  2.02724e-05
 Reference value :  2.04701e-05
 Reference value :  2.05005e-05
 Reference value :  2.05020e-05
 Reference value :  2.05030e-05
 Reference value :  2.05047e-05
 Reference value :  2.05062e-05
 Reference value :  2.05088e-05
 Reference value :  2.05145e-05
 Reference value :  2.05711e-05
 Reference value :  2.07501e-05
 Reference value :  2.07502e-05
 Reference value :  2.07504e-05
 Reference value :  2.07516e-05
 Reference value :  2.07525e-05
 Reference value :  2.07538e-05
 Reference value :  2.07549e-05
 Reference value :  2.07563e-05
 Reference value :  2.07612e-05
 Reference value :  2.08018e-05
 Reference value :  2.10000e-05
 Reference value :  2.10001e-05
 Reference value :  2.10002e-05
 Reference value :  2.10009e-05
 Reference value :  2.10016e-05
 Reference value :  2.10031e-05
 Reference value :  2.10047e-05
 Reference value :  2.10058e-05
 Reference value :  2.10087e-05
 Reference value :  2.10119e-05
 Reference value :  2.10145e-05
 Reference value :  2.10165e-05
 Reference value :  2.10199e-05
 Reference value :  2.10376e-05
 Reference value :  2.10752e-05
 Reference value :  2.11230e-05
 Reference value :  2.12372e-05
 Reference value :  2.12502e-05
 Reference value :  2.12507e-05
 Reference value :  2.12520e-05
 Reference value :  2.12538e-05
 Reference value :  2.12565e-05
 Reference value :  2.12856e-05
 Reference value :  2.15000e-05
 Reference value :  2.15002e-05
 Reference value :  2.15012e-05
 Reference value :  2.15026e-05
 Reference value :  2.15042e-05
 Reference value :  2.15070e-05
 Reference value :  2.15111e-05
 Reference value :  2.15693e-05
 Reference value :  2.17502e-05
 Reference value :  2.17504e-05
 Reference value :  2.17520e-05
 Reference value :  2.17538e-05
 Reference value :  2.17563e-05
 Reference value :  2.17700e-05
 Reference value :  2.20011e-05
 Reference value :  2.20046e-05
 Reference value :  2.20076e-05
 Reference value :  2.20117e-05
 Reference value :  2.20141e-05
 Reference value :  2.20173e-05
 Reference value :  2.20230e-05
 Reference value :  2.20361e-05
 Reference value :  2.20488e-05
 Reference value :  2.20612e-05
 Reference value :  2.20844e-05
 Reference value :  2.21024e-05
 Reference value :  2.21174e-05
 Reference value :  2.21732e-05
 Reference value :  2.22501e-05
 Reference value :  2.22502e-05
 Reference value :  2.22503e-05
 Reference value :  2.22511e-05
 Reference value :  2.22520e-05
 Reference value :  2.22537e-05
 Reference value :  2.22549e-05
 Reference value :  2.22575e-05
 Reference value :  2.22713e-05
 Reference value :  2.25000e-05
 Reference value :  2.25001e-05
 Reference value :  2.25002e-05
 Reference value :  2.25009e-05
 Reference value :  2.25016e-05
 Reference value :  2.25031e-05
 Reference value :  2.25049e-05
 Reference value :  2.25063e-05
 Reference value :  2.25080e-05
 Reference value :  2.25109e-05
 Reference value :  2.25416e-05
 Reference value :  2.27501e-05
 Reference value :  2.27502e-05
 Reference value :  2.27504e-05
 Reference value :  2.27516e-05
 Reference value :  2.27532e-05
 Reference value :  2.27544e-05
 Reference value :  2.27563e-05
 Reference value :  2.27612e-05
 Reference value :  2.27808e-05
 Reference value :  2.29339e-05
 Reference value :  2.30012e-05
 Reference value :  2.30035e-05
 Reference value :  2.30047e-05
 Reference value :  2.30068e-05
 Reference value :  2.30104e-05
 Reference value :  2.30119e-05
 Reference value :  2.30142e-05
 Reference value :  2.30177e-05
 Reference value :  2.30235e-05
 Reference value :  2.30442e-05
 Reference value :  2.30601e-05
 Reference value :  2.30738e-05
 Reference value :  2.31027e-05
 Reference value :  2.32306e-05
 Reference value :  2.32502e-05
 Reference value :  2.32504e-05
 Reference value :  2.32520e-05
 Reference value :  2.32536e-05
 Reference value :  2.32553e-05
 Reference value :  2.32612e-05
 Reference value :  2.33398e-05
 Reference value :  2.35001e-05
 Reference value :  2.35002e-05
 Reference value :  2.35009e-05
 Reference value :  2.35016e-05
 Reference value :  2.35025e-05
 Reference value :  2.35030e-05
 Reference value :  2.35041e-05
 Reference value :  2.35056e-05
 Reference value :  2.35062e-05
 Reference value :  2.35079e-05
 Reference value :  2.35110e-05
 Reference value :  2.35258e-05
 Reference value :  2.37501e-05
 Reference value :  2.37502e-05
 Reference value :  2.37502e-05
 Reference value :  2.37504e-05
 Reference value :  2.37516e-05
 Reference value :  2.37525e-05
 Reference value :  2.37538e-05
 Reference value :  2.37549e-05
 Reference value :  2.37562e-05
 Reference value :  2.37589e-05
 Reference value :  2.37621e-05
 Reference value :  2.37742e-05
 Reference value :  2.38361e-05
 Reference value :  2.40000e-05
 Reference value :  2.40001e-05
 Reference value :  2.40002e-05
 Reference value :  2.40009e-05
 Reference value :  2.40016e-05
 Reference value :  2.40031e-05
 Reference value :  2.40042e-05
 Reference value :  2.40052e-05
 Reference value :  2.40064e-05
 Reference value :  2.40081e-05
 Reference value :  2.40101e-05
 Reference value :  2.40120e-05
 Reference value :  2.40137e-05
 Reference value :  2.40153e-05
 Reference value :  2.40172e-05
 Reference value :  2.40192e-05
 Reference value :  2.40228e-05
 Reference value :  2.40296e-05
 Reference value :  2.40351e-05
 Reference value :  2.40497e-05
 Reference value :  2.40879e-05
 Reference value :  2.42501e-05
 Reference value :  2.42502e-05
 Reference value :  2.42502e-05
 Reference value :  2.42504e-05
 Reference value :  2.42516e-05
 Reference value :  2.42525e-05
 Reference value :  2.42538e-05
 Reference value :  2.42550e-05
 Reference value :  2.42580e-05
 Reference value :  2.42724e-05
 Reference value :  2.44694e-05
 Reference value :  2.45001e-05
 Reference value :  2.45001e-05
 Reference value :  2.45003e-05
 Reference value :  2.45009e-05
 Reference value :  2.45016e-05
 Reference value :  2.45031e-05
 Reference value :  2.45049e-05
 Reference value :  2.45063e-05
 Reference value :  2.45079e-05
 Reference value :  2.45109e-05
 Reference value :  2.45190e-05
 Reference value :  2.45717e-05
 Reference value :  2.47501e-05
 Reference value :  2.47502e-05
 Reference value :  2.47503e-05
 Reference value :  2.47511e-05
 Reference value :  2.47520e-05
 Reference value :  2.47532e-05
 Reference value :  2.47544e-05
 Reference value :  2.47555e-05
 Reference value :  2.47572e-05
 Reference value :  2.47644e-05
 Reference value :  2.48466e-05
 Reference value :  2.50000e-05
 Reference value :  2.50001e-05
 Reference value :  2.50002e-05
 Reference value :  2.50005e-05
 Reference value :  2.50012e-05
 Reference value :  2.50021e-05
 Reference value :  2.50031e-05
 Reference value :  2.50047e-05
 Reference value :  2.50058e-05
 Reference value :  2.50082e-05
 Reference value :  2.50101e-05
 Reference value :  2.50255e-05
 Reference value :  2.52501e-05
 Reference value :  2.52502e-05
 Reference value :  2.52503e-05
 Reference value :  2.52511e-05
 Reference value :  2.52520e-05
 Reference value :  2.52532e-05
 Reference value :  2.52558e-05
 Reference value :  2.52631e-05
 Reference value :  2.54984e-05
 Reference value :  2.55000e-05
 Reference value :  2.55000e-05
 Reference value :  2.55000e-05
 Reference value :  2.55001e-05
 Reference value :  2.55004e-05
 Reference value :  2.55016e-05
 Reference value :  2.55031e-05
 Reference value :  2.55046e-05
 Reference value :  2.55058e-05
 Reference value :  2.55095e-05
 Reference value :  2.55228e-05
 Reference value :  2.55291e-05
 Reference value :  2.55334e-05
 Reference value :  2.55388e-05
 Reference value :  2.55423e-05
 Reference value :  2.55483e-05
 Reference value :  2.55675e-05
 Reference value :  2.56057e-05
 Reference value :  2.56906e-05
 Reference value :  2.57501e-05
 Reference value :  2.57503e-05
 Reference value :  2.57507e-05
 Reference value :  2.57520e-05
 Reference value :  2.57532e-05
 Reference value :  2.57544e-05
 Reference value :  2.57556e-05
 Reference value :  2.57595e-05
 Reference value :  2.57843e-05
 Reference value :  2.59601e-05
 Reference value :  2.60000e-05
 Reference value :  2.60001e-05
 Reference value :  2.60002e-05
 Reference value :  2.60009e-05
 Reference value :  2.60021e-05
 Reference value :  2.60036e-05
 Reference value :  2.60056e-05
 Reference value :  2.60099e-05
 Reference value :  2.60127e-05
 Reference value :  2.60179e-05
 Reference value :  2.60490e-05
 Reference value :  2.62343e-05
 Reference value :  2.62501e-05
 Reference value :  2.62502e-05
 Reference value :  2.62511e-05
 Reference value :  2.62525e-05
 Reference value :  2.62538e-05
 Reference value :  2.62555e-05
 Reference value :  2.62572e-05
 Reference value :  2.62700e-05
 Reference value :  2.63235e-05
 Reference value :  2.63429e-05
 Reference value :  2.63677e-05
 Reference value :  2.63928e-05
 Reference value :  2.64697e-05
 Reference value :  2.65005e-05
 Reference value :  2.65022e-05
 Reference value :  2.65033e-05
 Reference value :  2.65044e-05
 Reference value :  2.65062e-05
 Reference value :  2.65093e-05
 Reference value :  2.65102e-05
 Reference value :  2.65122e-05
 Reference value :  2.65140e-05
 Reference value :  2.65159e-05
 Reference value :  2.65169e-05
 Reference value :  2.65190e-05
 Reference value :  2.65224e-05
 Reference value :  2.65297e-05
 Reference value :  2.65398e-05
 Reference value :  2.65435e-05
 Reference value :  2.65499e-05
 Reference value :  2.65660e-05
 Reference value :  2.65799e-05
 Reference value :  2.66000e-05
 Reference value :  2.66851e-05
 Reference value :  2.67501e-05
 Reference value :  2.67502e-05
 Reference value :  2.67503e-05
 Reference value :  2.67507e-05
 Reference value :  2.67516e-05
 Reference value :  2.67520e-05
 Reference value :  2.67532e-05
 Reference value :  2.67538e-05
 Reference value :  2.67550e-05
 Reference value :  2.67564e-05
 Reference value :  2.67596e-05
 Reference value :  2.67851e-05
 Reference value :  2.69658e-05
 Reference value :  2.70000e-05
 Reference value :  2.70001e-05
 Reference value :  2.70002e-05
 Reference value :  2.70005e-05
 Reference value :  2.70009e-05
 Reference value :  2.70016e-05
 Reference value :  2.70026e-05
 Reference value :  2.70031e-05
 Reference value :  2.70042e-05
 Reference value :  2.70057e-05
 Reference value :  2.70063e-05
 Reference value :  2.70079e-05
 Reference value :  2.70098e-05
 Reference value :  2.70121e-05
 Reference value :  2.70416e-05
 Reference value :  2.72501e-05
 Reference value :  2.72502e-05
 Reference value :  2.72503e-05
 Reference value :  2.72504e-05
 Reference value :  2.72516e-05
 Reference value :  2.72525e-05
 Reference value :  2.72538e-05
 Reference value :  2.72549e-05
 Reference value :  2.72563e-05
 Reference value :  2.72590e-05
 Reference value :  2.72700e-05
 Reference value :  2.73470e-05
 Reference value :  2.75000e-05
 Reference value :  2.75001e-05
 Reference value :  2.75002e-05
 Reference value :  2.75005e-05
 Reference value :  2.75012e-05
 Reference value :  2.75021e-05
 Reference value :  2.75031e-05
 Reference value :  2.75047e-05
 Reference value :  2.75058e-05
 Reference value :  2.75087e-05
 Reference value :  2.75119e-05
 Reference value :  2.75145e-05
 Reference value :  2.75165e-05
 Reference value :  2.75199e-05
 Reference value :  2.75511e-05
 Reference value :  2.77501e-05
 Reference value :  2.77502e-05
 Reference value :  2.77503e-05
 Reference value :  2.77511e-05
 Reference value :  2.77520e-05
 Reference value :  2.77538e-05
 Reference value :  2.77550e-05
 Reference value :  2.77580e-05
 Reference value :  2.77724e-05
 Reference value :  2.80000e-05
 Reference value :  2.80005e-05
 Reference value :  2.80021e-05
 Reference value :  2.80031e-05
 Reference value :  2.80048e-05
 Reference value :  2.80064e-05
 Reference value :  2.80080e-05
 Reference value :  2.80110e-05
 Reference value :  2.80269e-05
 Reference value :  2.82501e-05
 Reference value :  2.82502e-05
 Reference value :  2.82502e-05
 Reference value :  2.82504e-05
 Reference value :  2.82511e-05
 Reference value :  2.82520e-05
 Reference value :  2.82532e-05
 Reference value :  2.82538e-05
 Reference value :  2.82549e-05
 Reference value :  2.82563e-05
 Reference value :  2.82613e-05
 Reference value :  2.82812e-05
 Reference value :  2.84366e-05
 Reference value :  2.85000e-05
 Reference value :  2.85001e-05
 Reference value :  2.85002e-05
 Reference value :  2.85009e-05
 Reference value :  2.85016e-05
 Reference value :  2.85031e-05
 Reference value :  2.85047e-05
 Reference value :  2.85058e-05
 Reference value :  2.85087e-05
 Reference value :  2.85103e-05
 Reference value :  2.85134e-05
 Reference value :  2.85145e-05
 Reference value :  2.85165e-05
 Reference value :  2.85187e-05
 Reference value :  2.85243e-05
 Reference value :  2.85512e-05
 Reference value :  2.86072e-05
 Reference value :  2.86465e-05
 Reference value :  2.87501e-05
 Reference value :  2.87502e-05
 Reference value :  2.87502e-05
 Reference value :  2.87504e-05
 Reference value :  2.87516e-05
 Reference value :  2.87525e-05
 Reference value :  2.87538e-05
 Reference value :  2.87550e-05
 Reference value :  2.87580e-05
 Reference value :  2.87658e-05
 Reference value :  2.88120e-05
 Reference value :  2.90000e-05
 Reference value :  2.90005e-05
 Reference value :  2.90020e-05
 Reference value :  2.90030e-05
 Reference value :  2.90041e-05
 Reference value :  2.90056e-05
 Reference value :  2.90062e-05
 Reference value :  2.90079e-05
 Reference value :  2.90098e-05
 Reference value :  2.90145e-05
 Reference value :  2.90715e-05
 Reference value :  2.92501e-05
 Reference value :  2.92502e-05
 Reference value :  2.92503e-05
 Reference value :  2.92511e-05
 Reference value :  2.92520e-05
 Reference value :  2.92532e-05
 Reference value :  2.92538e-05
 Reference value :  2.92549e-05
 Reference value :  2.92563e-05
 Reference value :  2.92589e-05
 Reference value :  2.92697e-05
 Reference value :  2.93447e-05
 Reference value :  2.95000e-05
 Reference value :  2.95001e-05
 Reference value :  2.95001e-05
 Reference value :  2.95002e-05
 Reference value :  2.95003e-05
 Reference value :  2.95009e-05
 Reference value :  2.95016e-05
 Reference value :  2.95026e-05
 Reference value :  2.95031e-05
 Reference value :  2.95042e-05
 Reference value :  2.95052e-05
 Reference value :  2.95065e-05
 Reference value :  2.95087e-05
 Reference value :  2.95103e-05
 Reference value :  2.95134e-05
 Reference value :  2.95145e-05
 Reference value :  2.95165e-05
 Reference value :  2.95187e-05
 Reference value :  2.95243e-05
 Reference value :  2.95512e-05
 Reference value :  2.95923e-05
 Reference value :  2.96293e-05
 Reference value :  2.97025e-05
 Reference value :  2.97501e-05
 Reference value :  2.97502e-05
 Reference value :  2.97503e-05
 Reference value :  2.97504e-05
 Reference value :  2.97511e-05
 Reference value :  2.97520e-05
 Reference value :  2.97532e-05
 Reference value :  2.97538e-05
 Reference value :  2.97550e-05
 Reference value :  2.97565e-05
 Reference value :  2.97597e-05
 Reference value :  2.97724e-05
 Reference value :  2.98645e-05
 Reference value :  3.00000e-05
 Reference value :  3.00001e-05
 Reference value :  3.00002e-05
 Reference value :  3.00005e-05
 Reference value :  3.00009e-05
 Reference value :  3.00016e-05
 Reference value :  3.00026e-05
 Reference value :  3.00031e-05
 Reference value :  3.00042e-05
 Reference value :  3.00063e-05
 Reference value :  3.00079e-05
 Reference value :  3.00111e-05
 Reference value :  3.00261e-05
 Reference value :  3.01269e-05
 Reference value :  3.02501e-05
 Reference value :  3.02502e-05
 Reference value :  3.02503e-05
 Reference value :  3.02507e-05
 Reference value :  3.02516e-05
 Reference value :  3.02525e-05
 Reference value :  3.02538e-05
 Reference value :  3.02549e-05
 Reference value :  3.02572e-05
 Reference value :  3.02700e-05
 Reference value :  3.04361e-05
 Reference value :  3.05011e-05
 Reference value :  3.05046e-05
 Reference value :  3.05067e-05
 Reference value :  3.05102e-05
 Reference value :  3.05117e-05
 Reference value :  3.05130e-05
 Reference value :  3.05141e-05
 Reference value :  3.05163e-05
 Reference value :  3.05183e-05
 Reference value :  3.05209e-05
 Reference value :  3.05304e-05
 Reference value :  3.05426e-05
 Reference value :  3.05502e-05
 Reference value :  3.05636e-05
 Reference value :  3.05779e-05
 Reference value :  3.05844e-05
 Reference value :  3.05888e-05
 Reference value :  3.05981e-05
 Reference value :  3.06104e-05
 Reference value :  3.06531e-05
 Reference value :  3.07501e-05
 Reference value :  3.07501e-05
 Reference value :  3.07502e-05
 Reference value :  3.07503e-05
 Reference value :  3.07507e-05
 Reference value :  3.07520e-05
 Reference value :  3.07531e-05
 Reference value :  3.07537e-05
 Reference value :  3.07549e-05
 Reference value :  3.07564e-05
 Reference value :  3.07616e-05
 Reference value :  3.08069e-05
 Reference value :  3.10000e-05
 Reference value :  3.10001e-05
 Reference value :  3.10001e-05
 Reference value :  3.10002e-05
 Reference value :  3.10009e-05
 Reference value :  3.10016e-05
 Reference value :  3.10026e-05
 Reference value :  3.10036e-05
 Reference value :  3.10049e-05
 Reference value :  3.10063e-05
 Reference value :  3.10080e-05
 Reference value :  3.10098e-05
 Reference value :  3.10121e-05
 Reference value :  3.10265e-05
 Reference value :  3.11318e-05
 Reference value :  3.12501e-05
 Reference value :  3.12502e-05
 Reference value :  3.12503e-05
 Reference value :  3.12511e-05
 Reference value :  3.12520e-05
 Reference value :  3.12532e-05
 Reference value :  3.12538e-05
 Reference value :  3.12549e-05
 Reference value :  3.12563e-05
 Reference value :  3.12612e-05
 Reference value :  3.13027e-05
 Reference value :  3.15000e-05
 Reference value :  3.15001e-05
 Reference value :  3.15001e-05
 Reference value :  3.15003e-05
 Reference value :  3.15009e-05
 Reference value :  3.15016e-05
 Reference value :  3.15026e-05
 Reference value :  3.15036e-05
 Reference value :  3.15047e-05
 Reference value :  3.15058e-05
 Reference value :  3.15087e-05
 Reference value :  3.15119e-05
 Reference value :  3.15145e-05
 Reference value :  3.15165e-05
 Reference value :  3.15187e-05
 Reference value :  3.15219e-05
 Reference value :  3.15363e-05
 Reference value :  3.15513e-05
 Reference value :  3.15962e-05
 Reference value :  3.16222e-05
 Reference value :  3.17133e-05
 Reference value :  3.17501e-05
 Reference value :  3.17502e-05
 Reference value :  3.17503e-05
 Reference value :  3.17507e-05
 Reference value :  3.17516e-05
 Reference value :  3.17525e-05
 Reference value :  3.17537e-05
 Reference value :  3.17557e-05
 Reference value :  3.17626e-05
 Reference value :  3.17860e-05
 Reference value :  3.19737e-05
 Reference value :  3.20000e-05
 Reference value :  3.20001e-05
 Reference value :  3.20002e-05
 Reference value :  3.20003e-05
 Reference value :  3.20009e-05
 Reference value :  3.20016e-05
 Reference value :  3.20025e-05
 Reference value :  3.20030e-05
 Reference value :  3.20041e-05
 Reference value :  3.20056e-05
 Reference value :  3.20063e-05
 Reference value :  3.20080e-05
 Reference value :  3.20099e-05
 Reference value :  3.20145e-05
 Reference value :  3.20403e-05
 Reference value :  3.22389e-05
 Reference value :  3.22501e-05
 Reference value :  3.22502e-05
 Reference value :  3.22503e-05
 Reference value :  3.22504e-05
 Reference value :  3.22511e-05
 Reference value :  3.22520e-05
 Reference value :  3.22532e-05
 Reference value :  3.22538e-05
 Reference value :  3.22549e-05
 Reference value :  3.22562e-05
 Reference value :  3.22579e-05
 Reference value :  3.22604e-05
 Reference value :  3.22648e-05
 Reference value :  3.22845e-05
 Reference value :  3.24057e-05
 Reference value :  3.25000e-05
 Reference value :  3.25001e-05
 Reference value :  3.25002e-05
 Reference value :  3.25009e-05
 Reference value :  3.25016e-05
 Reference value :  3.25026e-05
 Reference value :  3.25036e-05
 Reference value :  3.25052e-05
 Reference value :  3.25064e-05
 Reference value :  3.25081e-05
 Reference value :  3.25101e-05
 Reference value :  3.25120e-05
 Reference value :  3.25137e-05
 Reference value :  3.25154e-05
 Reference value :  3.25184e-05
 Reference value :  3.25230e-05
 Reference value :  3.25502e-05
 Reference value :  3.27501e-05
 Reference value :  3.27502e-05
 Reference value :  3.27503e-05
 Reference value :  3.27511e-05
 Reference value :  3.27520e-05
 Reference value :  3.27532e-05
 Reference value :  3.27544e-05
 Reference value :  3.27557e-05
 Reference value :  3.27625e-05
 Reference value :  3.28117e-05
 Reference value :  3.30000e-05
 Reference value :  3.30001e-05
 Reference value :  3.30002e-05
 Reference value :  3.30005e-05
 Reference value :  3.30012e-05
 Reference value :  3.30021e-05
 Reference value :  3.30031e-05
 Reference value :  3.30042e-05
 Reference value :  3.30057e-05
 Reference value :  3.30063e-05
 Reference value :  3.30079e-05
 Reference value :  3.30098e-05
 Reference value :  3.30121e-05
 Reference value :  3.30416e-05
 Reference value :  3.32501e-05
 Reference value :  3.32502e-05
 Reference value :  3.32502e-05
 Reference value :  3.32503e-05
 Reference value :  3.32507e-05
 Reference value :  3.32516e-05
 Reference value :  3.32525e-05
 Reference value :  3.32538e-05
 Reference value :  3.32549e-05
 Reference value :  3.32563e-05
 Reference value :  3.32612e-05
 Reference value :  3.33028e-05
 Reference value :  3.35011e-05
 Reference value :  3.35044e-05
 Reference value :  3.35063e-05
 Reference value :  3.35083e-05
 Reference value :  3.35104e-05
 Reference value :  3.35116e-05
 Reference value :  3.35187e-05
 Reference value :  3.35873e-05
 Reference value :  3.37501e-05
 Reference value :  3.37502e-05
 Reference value :  3.37503e-05
 Reference value :  3.37507e-05
 Reference value :  3.37520e-05
 Reference value :  3.37531e-05
 Reference value :  3.37547e-05
 Reference value :  3.37565e-05
 Reference value :  3.37598e-05
 Reference value :  3.37722e-05
 Reference value :  3.38473e-05
 Reference value :  3.40000e-05
 Reference value :  3.40000e-05
 Reference value :  3.40000e-05
 Reference value :  3.40000e-05
 Reference value :  3.40000e-05
 Reference value :  3.40001e-05
 Reference value :  3.40002e-05
 Reference value :  3.40004e-05
 Reference value :  3.40012e-05
 Reference value :  3.40020e-05
 Reference value :  3.40031e-05
 Reference value :  3.40042e-05
 Reference value :  3.40052e-05
 Reference value :  3.40065e-05
 Reference value :  3.40123e-05
 Reference value :  3.40228e-05
 Reference value :  3.40291e-05
 Reference value :  3.40334e-05
 Reference value :  3.40370e-05
 Reference value :  3.40405e-05
 Reference value :  3.40460e-05
 Reference value :  3.40560e-05
 Reference value :  3.40925e-05
 Reference value :  3.41600e-05
 Reference value :  3.42501e-05
 Reference value :  3.42502e-05
 Reference value :  3.42503e-05
 Reference value :  3.42507e-05
 Reference value :  3.42520e-05
 Reference value :  3.42532e-05
 Reference value :  3.42544e-05
 Reference value :  3.42556e-05
 Reference value :  3.42595e-05
 Reference value :  3.42843e-05
 Reference value :  3.44602e-05
 Reference value :  3.45001e-05
 Reference value :  3.45001e-05
 Reference value :  3.45003e-05
 Reference value :  3.45012e-05
 Reference value :  3.45026e-05
 Reference value :  3.45042e-05
 Reference value :  3.45087e-05
 Reference value :  3.45113e-05
 Reference value :  3.45142e-05
 Reference value :  3.45335e-05
 Reference value :  3.47352e-05
 Reference value :  3.47502e-05
 Reference value :  3.47503e-05
 Reference value :  3.47516e-05
 Reference value :  3.47532e-05
 Reference value :  3.47549e-05
 Reference value :  3.47563e-05
 Reference value :  3.47645e-05
 Reference value :  3.48266e-05
 Reference value :  3.48468e-05
 Reference value :  3.48647e-05
 Reference value :  3.48874e-05
 Reference value :  3.49404e-05
 Reference value :  3.50000e-05
 Reference value :  3.50001e-05
 Reference value :  3.50005e-05
 Reference value :  3.50016e-05
 Reference value :  3.50031e-05
 Reference value :  3.50052e-05
 Reference value :  3.50080e-05
 Reference value :  3.50100e-05
 Reference value :  3.50119e-05
 Reference value :  3.50136e-05
 Reference value :  3.50151e-05
 Reference value :  3.50189e-05
 Reference value :  3.50345e-05
 Reference value :  3.50401e-05
 Reference value :  3.50476e-05
 Reference value :  3.50641e-05
 Reference value :  3.50882e-05
 Reference value :  3.51718e-05
 Reference value :  3.52501e-05
 Reference value :  3.52502e-05
 Reference value :  3.52503e-05
 Reference value :  3.52511e-05
 Reference value :  3.52520e-05
 Reference value :  3.52538e-05
 Reference value :  3.52550e-05
 Reference value :  3.52580e-05
 Reference value :  3.52723e-05
 Reference value :  3.53640e-05
 Reference value :  3.55000e-05
 Reference value :  3.55001e-05
 Reference value :  3.55002e-05
 Reference value :  3.55009e-05
 Reference value :  3.55016e-05
 Reference value :  3.55031e-05
 Reference value :  3.55049e-05
 Reference value :  3.55063e-05
 Reference value :  3.55079e-05
 Reference value :  3.55109e-05
 Reference value :  3.55265e-05
 Reference value :  3.57501e-05
 Reference value :  3.57502e-05
 Reference value :  3.57502e-05
 Reference value :  3.57504e-05
 Reference value :  3.57516e-05
 Reference value :  3.57525e-05
 Reference value :  3.57538e-05
 Reference value :  3.57549e-05
 Reference value :  3.57563e-05
 Reference value :  3.57645e-05
 Reference value :  3.59348e-05
 Reference value :  3.60011e-05
 Reference value :  3.60044e-05
 Reference value :  3.60063e-05
 Reference value :  3.60113e-05
 Reference value :  3.60126e-05
 Reference value :  3.60151e-05
 Reference value :  3.60171e-05
 Reference value :  3.60194e-05
 Reference value :  3.60301e-05
 Reference value :  3.60703e-05
 Reference value :  3.62501e-05
 Reference value :  3.62502e-05
 Reference value :  3.62502e-05
 Reference value :  3.62504e-05
 Reference value :  3.62516e-05
 Reference value :  3.62525e-05
 Reference value :  3.62537e-05
 Reference value :  3.62549e-05
 Reference value :  3.62564e-05
 Reference value :  3.62616e-05
 Reference value :  3.63041e-05
 Reference value :  3.65000e-05
 Reference value :  3.65001e-05
 Reference value :  3.65001e-05
 Reference value :  3.65003e-05
 Reference value :  3.65009e-05
 Reference value :  3.65016e-05
 Reference value :  3.65031e-05
 Reference value :  3.65049e-05
 Reference value :  3.65063e-05
 Reference value :  3.65079e-05
 Reference value :  3.65098e-05
 Reference value :  3.65121e-05
 Reference value :  3.65265e-05
 Reference value :  3.66318e-05
 Reference value :  3.67501e-05
 Reference value :  3.67502e-05
 Reference value :  3.67503e-05
 Reference value :  3.67511e-05
 Reference value :  3.67520e-05
 Reference value :  3.67532e-05
 Reference value :  3.67538e-05
 Reference value :  3.67549e-05
 Reference value :  3.67563e-05
 Reference value :  3.67590e-05
 Reference value :  3.67699e-05
 Reference value :  3.68027e-05
 Reference value :  3.69341e-05
 Reference value :  3.70000e-05
 Reference value :  3.70001e-05
 Reference value :  3.70001e-05
 Reference value :  3.70002e-05
 Reference value :  3.70009e-05
 Reference value :  3.70016e-05
 Reference value :  3.70026e-05
 Reference value :  3.70031e-05
 Reference value :  3.70047e-05
 Reference value :  3.70058e-05
 Reference value :  3.70087e-05
 Reference value :  3.70103e-05
 Reference value :  3.70134e-05
 Reference value :  3.70145e-05
 Reference value :  3.70165e-05
 Reference value :  3.70187e-05
 Reference value :  3.70243e-05
 Reference value :  3.70375e-05
 Reference value :  3.71076e-05
 Reference value :  3.71905e-05
 Reference value :  3.72501e-05
 Reference value :  3.72502e-05
 Reference value :  3.72503e-05
 Reference value :  3.72511e-05
 Reference value :  3.72520e-05
 Reference value :  3.72532e-05
 Reference value :  3.72538e-05
 Reference value :  3.72550e-05
 Reference value :  3.72565e-05
 Reference value :  3.72597e-05
 Reference value :  3.72856e-05
 Reference value :  3.75000e-05
 Reference value :  3.75001e-05
 Reference value :  3.75002e-05
 Reference value :  3.75005e-05
 Reference value :  3.75012e-05
 Reference value :  3.75021e-05
 Reference value :  3.75031e-05
 Reference value :  3.75042e-05
 Reference value :  3.75057e-05
 Reference value :  3.75063e-05
 Reference value :  3.75079e-05
 Reference value :  3.75098e-05
 Reference value :  3.75144e-05
 Reference value :  3.75405e-05
 Reference value :  3.77419e-05
 Reference value :  3.77501e-05
 Reference value :  3.77502e-05
 Reference value :  3.77502e-05
 Reference value :  3.77503e-05
 Reference value :  3.77504e-05
 Reference value :  3.77511e-05
 Reference value :  3.77520e-05
 Reference value :  3.77532e-05
 Reference value :  3.77538e-05
 Reference value :  3.77549e-05
 Reference value :  3.77563e-05
 Reference value :  3.77590e-05
 Reference value :  3.77700e-05
 Reference value :  3.78475e-05
 Reference value :  3.80000e-05
 Reference value :  3.80001e-05
 Reference value :  3.80002e-05
 Reference value :  3.80005e-05
 Reference value :  3.80012e-05
 Reference value :  3.80021e-05
 Reference value :  3.80031e-05
 Reference value :  3.80042e-05
 Reference value :  3.80052e-05
 Reference value :  3.80073e-05
 Reference value :  3.80103e-05
 Reference value :  3.80134e-05
 Reference value :  3.80145e-05
 Reference value :  3.80165e-05
 Reference value :  3.80187e-05
 Reference value :  3.80243e-05
 Reference value :  3.80512e-05
 Reference value :  3.81000e-05
 Reference value :  3.81422e-05
 Reference value :  3.82306e-05
 Reference value :  3.82501e-05
 Reference value :  3.82502e-05
 Reference value :  3.82503e-05
 Reference value :  3.82511e-05
 Reference value :  3.82520e-05
 Reference value :  3.82532e-05
 Reference value :  3.82538e-05
 Reference value :  3.82550e-05
 Reference value :  3.82565e-05
 Reference value :  3.82597e-05
 Reference value :  3.82658e-05
 Reference value :  3.82856e-05
 Reference value :  3.83647e-05
 Reference value :  3.85000e-05
 Reference value :  3.85005e-05
 Reference value :  3.85015e-05
 Reference value :  3.85020e-05
 Reference value :  3.85030e-05
 Reference value :  3.85041e-05
 Reference value :  3.85056e-05
 Reference value :  3.85062e-05
 Reference value :  3.85079e-05
 Reference value :  3.85098e-05
 Reference value :  3.85121e-05
 Reference value :  3.85257e-05
 Reference value :  3.86270e-05
 Reference value :  3.87501e-05
 Reference value :  3.87502e-05
 Reference value :  3.87502e-05
 Reference value :  3.87504e-05
 Reference value :  3.87511e-05
 Reference value :  3.87520e-05
 Reference value :  3.87532e-05
 Reference value :  3.87538e-05
 Reference value :  3.87549e-05
 Reference value :  3.87563e-05
 Reference value :  3.87589e-05
 Reference value :  3.87697e-05
 Reference value :  3.88447e-05
 Reference value :  3.90000e-05
 Reference value :  3.90001e-05
 Reference value :  3.90002e-05
 Reference value :  3.90003e-05
 Reference value :  3.90009e-05
 Reference value :  3.90016e-05
 Reference value :  3.90031e-05
 Reference value :  3.90042e-05
 Reference value :  3.90052e-05
 Reference value :  3.90065e-05
 Reference value :  3.90087e-05
 Reference value :  3.90103e-05
 Reference value :  3.90119e-05
 Reference value :  3.90145e-05
 Reference value :  3.90165e-05
 Reference value :  3.90187e-05
 Reference value :  3.90219e-05
 Reference value :  3.90293e-05
 Reference value :  3.90356e-05
 Reference value :  3.90512e-05
 Reference value :  3.90660e-05
 Reference value :  3.90720e-05
 Reference value :  3.90759e-05
 Reference value :  3.90846e-05
 Reference value :  3.90955e-05
 Reference value :  3.91649e-05
 Reference value :  3.92501e-05
 Reference value :  3.92502e-05
 Reference value :  3.92503e-05
 Reference value :  3.92507e-05
 Reference value :  3.92520e-05
 Reference value :  3.92532e-05
 Reference value :  3.92538e-05
 Reference value :  3.92550e-05
 Reference value :  3.92565e-05
 Reference value :  3.92625e-05
 Reference value :  3.92856e-05
 Reference value :  3.94701e-05
 Reference value :  3.95000e-05
 Reference value :  3.95001e-05
 Reference value :  3.95002e-05
 Reference value :  3.95005e-05
 Reference value :  3.95012e-05
 Reference value :  3.95021e-05
 Reference value :  3.95031e-05
 Reference value :  3.95042e-05
 Reference value :  3.95057e-05
 Reference value :  3.95063e-05
 Reference value :  3.95079e-05
 Reference value :  3.95098e-05
 Reference value :  3.95144e-05
 Reference value :  3.95405e-05
 Reference value :  3.96269e-05
 Reference value :  3.97501e-05
 Reference value :  3.97501e-05
 Reference value :  3.97502e-05
 Reference value :  3.97503e-05
 Reference value :  3.97504e-05
 Reference value :  3.97511e-05
 Reference value :  3.97520e-05
 Reference value :  3.97532e-05
 Reference value :  3.97538e-05
 Reference value :  3.97549e-05
 Reference value :  3.97563e-05
 Reference value :  3.97590e-05
 Reference value :  3.98032e-05
 Reference value :  4.00000e-05
 Reference value :  4.00001e-05
 Reference value :  4.00001e-05
 Reference value :  4.00003e-05
 Reference value :  4.00009e-05
 Reference value :  4.00016e-05
 Reference value :  4.00031e-05
 Reference value :  4.00047e-05
 Reference value :  4.00058e-05
 Reference value :  4.00087e-05
 Reference value :  4.00103e-05
 Reference value :  4.00134e-05
 Reference value :  4.00156e-05
 Reference value :  4.00176e-05
 Reference value :  4.00199e-05
 Reference value :  4.00296e-05
 Reference value :  4.00523e-05
 Reference value :  4.00999e-05
 Reference value :  4.01493e-05
 Reference value :  4.02501e-05
 Reference value :  4.02502e-05
 Reference value :  4.02502e-05
 Reference value :  4.02504e-05
 Reference value :  4.02511e-05
 Reference value :  4.02520e-05
 Reference value :  4.02532e-05
 Reference value :  4.02538e-05
 Reference value :  4.02550e-05
 Reference value :  4.02565e-05
 Reference value :  4.02597e-05
 Reference value :  4.02725e-05
 Reference value :  4.03649e-05
 Reference value :  4.05000e-05
 Reference value :  4.05000e-05
 Reference value :  4.05001e-05
 Reference value :  4.05003e-05
 Reference value :  4.05009e-05
 Reference value :  4.05016e-05
 Reference value :  4.05031e-05
 Reference value :  4.05057e-05
 Reference value :  4.05063e-05
 Reference value :  4.05079e-05
 Reference value :  4.05109e-05
 Reference value :  4.05265e-05
 Reference value :  4.07501e-05
 Reference value :  4.07502e-05
 Reference value :  4.07503e-05
 Reference value :  4.07511e-05
 Reference value :  4.07525e-05
 Reference value :  4.07538e-05
 Reference value :  4.07549e-05
 Reference value :  4.07563e-05
 Reference value :  4.07644e-05
 Reference value :  4.08465e-05
 Reference value :  4.10012e-05
 Reference value :  4.10047e-05
 Reference value :  4.10068e-05
 Reference value :  4.10091e-05
 Reference value :  4.10119e-05
 Reference value :  4.10132e-05
 Reference value :  4.10153e-05
 Reference value :  4.10174e-05
 Reference value :  4.10212e-05
 Reference value :  4.10308e-05
 Reference value :  4.10407e-05
 Reference value :  4.10506e-05
 Reference value :  4.10637e-05
 Reference value :  4.11088e-05
 Reference value :  4.12501e-05
 Reference value :  4.12502e-05
 Reference value :  4.12504e-05
 Reference value :  4.12516e-05
 Reference value :  4.12525e-05
 Reference value :  4.12536e-05
 Reference value :  4.12554e-05
 Reference value :  4.12589e-05
 Reference value :  4.12820e-05
 Reference value :  4.15000e-05
 Reference value :  4.15001e-05
 Reference value :  4.15002e-05
 Reference value :  4.15009e-05
 Reference value :  4.15016e-05
 Reference value :  4.15030e-05
 Reference value :  4.15041e-05
 Reference value :  4.15062e-05
 Reference value :  4.15079e-05
 Reference value :  4.15111e-05
 Reference value :  4.15191e-05
 Reference value :  4.15690e-05
 Reference value :  4.17501e-05
 Reference value :  4.17502e-05
 Reference value :  4.17503e-05
 Reference value :  4.17507e-05
 Reference value :  4.17516e-05
 Reference value :  4.17520e-05
 Reference value :  4.17532e-05
 Reference value :  4.17538e-05
 Reference value :  4.17549e-05
 Reference value :  4.17562e-05
 Reference value :  4.17589e-05
 Reference value :  4.17647e-05
 Reference value :  4.18010e-05
 Reference value :  4.20000e-05
 Reference value :  4.20001e-05
 Reference value :  4.20002e-05
 Reference value :  4.20003e-05
 Reference value :  4.20009e-05
 Reference value :  4.20016e-05
 Reference value :  4.20026e-05
 Reference value :  4.20036e-05
 Reference value :  4.20041e-05
 Reference value :  4.20052e-05
 Reference value :  4.20063e-05
 Reference value :  4.20077e-05
 Reference value :  4.20093e-05
 Reference value :  4.20118e-05
 Reference value :  4.20182e-05
 Reference value :  4.20397e-05
 Reference value :  4.20826e-05
 Reference value :  4.21262e-05
 Reference value :  4.22013e-05
 Reference value :  4.22501e-05
 Reference value :  4.22502e-05
 Reference value :  4.22503e-05
 Reference value :  4.22507e-05
 Reference value :  4.22516e-05
 Reference value :  4.22525e-05
 Reference value :  4.22539e-05
 Reference value :  4.22568e-05
 Reference value :  4.22601e-05
 Reference value :  4.22893e-05
 Reference value :  4.25000e-05
 Reference value :  4.25000e-05
 Reference value :  4.25000e-05
 Reference value :  4.25000e-05
 Reference value :  4.25001e-05
 Reference value :  4.25002e-05
 Reference value :  4.25007e-05
 Reference value :  4.25020e-05
 Reference value :  4.25031e-05
 Reference value :  4.25036e-05
 Reference value :  4.25046e-05
 Reference value :  4.25058e-05
 Reference value :  4.25095e-05
 Reference value :  4.25228e-05
 Reference value :  4.25291e-05
 Reference value :  4.25334e-05
 Reference value :  4.25391e-05
 Reference value :  4.25440e-05
 Reference value :  4.25514e-05
 Reference value :  4.25637e-05
 Reference value :  4.25935e-05
 Reference value :  4.26628e-05
 Reference value :  4.27501e-05
 Reference value :  4.27502e-05
 Reference value :  4.27503e-05
 Reference value :  4.27507e-05
 Reference value :  4.27516e-05
 Reference value :  4.27525e-05
 Reference value :  4.27537e-05
 Reference value :  4.27550e-05
 Reference value :  4.27579e-05
 Reference value :  4.27654e-05
 Reference value :  4.28091e-05
 Reference value :  4.30000e-05
 Reference value :  4.30001e-05
 Reference value :  4.30001e-05
 Reference value :  4.30003e-05
 Reference value :  4.30009e-05
 Reference value :  4.30016e-05
 Reference value :  4.30026e-05
 Reference value :  4.30031e-05
 Reference value :  4.30042e-05
 Reference value :  4.30069e-05
 Reference value :  4.30099e-05
 Reference value :  4.30127e-05
 Reference value :  4.30179e-05
 Reference value :  4.30336e-05
 Reference value :  4.31299e-05
 Reference value :  4.32501e-05
 Reference value :  4.32502e-05
 Reference value :  4.32503e-05
 Reference value :  4.32507e-05
 Reference value :  4.32516e-05
 Reference value :  4.32525e-05
 Reference value :  4.32538e-05
 Reference value :  4.32549e-05
 Reference value :  4.32563e-05
 Reference value :  4.32612e-05
 Reference value :  4.32810e-05
 Reference value :  4.33351e-05
 Reference value :  4.33679e-05
 Reference value :  4.33940e-05
 Reference value :  4.34101e-05
 Reference value :  4.34258e-05
 Reference value :  4.34560e-05
 Reference value :  4.35000e-05
 Reference value :  4.35001e-05
 Reference value :  4.35001e-05
 Reference value :  4.35001e-05
 Reference value :  4.35005e-05
 Reference value :  4.35011e-05
 Reference value :  4.35020e-05
 Reference value :  4.35030e-05
 Reference value :  4.35041e-05
 Reference value :  4.35050e-05
 Reference value :  4.35061e-05
 Reference value :  4.35079e-05
 Reference value :  4.35100e-05
 Reference value :  4.35119e-05
 Reference value :  4.35136e-05
 Reference value :  4.35152e-05
 Reference value :  4.35170e-05
 Reference value :  4.35190e-05
 Reference value :  4.35254e-05
 Reference value :  4.35374e-05
 Reference value :  4.35414e-05
 Reference value :  4.35556e-05
 Reference value :  4.35736e-05
 Reference value :  4.36833e-05
 Reference value :  4.37502e-05
 Reference value :  4.37503e-05
 Reference value :  4.37507e-05
 Reference value :  4.37516e-05
 Reference value :  4.37525e-05
 Reference value :  4.37538e-05
 Reference value :  4.37550e-05
 Reference value :  4.37564e-05
 Reference value :  4.37625e-05
 Reference value :  4.37855e-05
 Reference value :  4.39692e-05
 Reference value :  4.40001e-05
 Reference value :  4.40002e-05
 Reference value :  4.40005e-05
 Reference value :  4.40012e-05
 Reference value :  4.40021e-05
 Reference value :  4.40036e-05
 Reference value :  4.40057e-05
 Reference value :  4.40063e-05
 Reference value :  4.40079e-05
 Reference value :  4.40109e-05
 Reference value :  4.40265e-05
 Reference value :  4.42501e-05
 Reference value :  4.42502e-05
 Reference value :  4.42502e-05
 Reference value :  4.42504e-05
 Reference value :  4.42516e-05
 Reference value :  4.42525e-05
 Reference value :  4.42538e-05
 Reference value :  4.42549e-05
 Reference value :  4.42563e-05
 Reference value :  4.42612e-05
 Reference value :  4.42810e-05
 Reference value :  4.44350e-05
 Reference value :  4.45000e-05
 Reference value :  4.45001e-05
 Reference value :  4.45002e-05
 Reference value :  4.45009e-05
 Reference value :  4.45016e-05
 Reference value :  4.45031e-05
 Reference value :  4.45042e-05
 Reference value :  4.45052e-05
 Reference value :  4.45073e-05
 Reference value :  4.45103e-05
 Reference value :  4.45134e-05
 Reference value :  4.45145e-05
 Reference value :  4.45165e-05
 Reference value :  4.45187e-05
 Reference value :  4.45243e-05
 Reference value :  4.45511e-05
 Reference value :  4.46799e-05
 Reference value :  4.47501e-05
 Reference value :  4.47502e-05
 Reference value :  4.47503e-05
 Reference value :  4.47511e-05
 Reference value :  4.47520e-05
 Reference value :  4.47538e-05
 Reference value :  4.47550e-05
 Reference value :  4.47565e-05
 Reference value :  4.47625e-05
 Reference value :  4.47855e-05
 Reference value :  4.49696e-05
 Reference value :  4.50000e-05
 Reference value :  4.50001e-05
 Reference value :  4.50002e-05
 Reference value :  4.50003e-05
 Reference value :  4.50009e-05
 Reference value :  4.50016e-05
 Reference value :  4.50026e-05
 Reference value :  4.50031e-05
 Reference value :  4.50042e-05
 Reference value :  4.50057e-05
 Reference value :  4.50063e-05
 Reference value :  4.50079e-05
 Reference value :  4.50111e-05
 Reference value :  4.50261e-05
 Reference value :  4.51268e-05
 Reference value :  4.52501e-05
 Reference value :  4.52502e-05
 Reference value :  4.52503e-05
 Reference value :  4.52511e-05
 Reference value :  4.52520e-05
 Reference value :  4.52532e-05
 Reference value :  4.52538e-05
 Reference value :  4.52549e-05
 Reference value :  4.52563e-05
 Reference value :  4.52613e-05
 Reference value :  4.53032e-05
 Reference value :  4.55000e-05
 Reference value :  4.55001e-05
 Reference value :  4.55001e-05
 Reference value :  4.55003e-05
 Reference value :  4.55009e-05
 Reference value :  4.55021e-05
 Reference value :  4.55036e-05
 Reference value :  4.55052e-05
 Reference value :  4.55073e-05
 Reference value :  4.55103e-05
 Reference value :  4.55134e-05
 Reference value :  4.55156e-05
 Reference value :  4.55176e-05
 Reference value :  4.55219e-05
 Reference value :  4.55766e-05
 Reference value :  4.57501e-05
 Reference value :  4.57502e-05
 Reference value :  4.57507e-05
 Reference value :  4.57520e-05
 Reference value :  4.57538e-05
 Reference value :  4.57550e-05
 Reference value :  4.57580e-05
[...]
 Reference value :  1.66001e-04
 Reference value :  1.66002e-04
 Reference value :  1.66003e-04
 Reference value :  1.66005e-04
 Reference value :  1.66006e-04
 Reference value :  1.66008e-04
 Reference value :  1.66011e-04
 Reference value :  1.66026e-04
 Reference value :  1.66241e-04
 Reference value :  1.66250e-04
 Reference value :  1.66250e-04
 Reference value :  1.66250e-04
 Reference value :  1.66251e-04
 Reference value :  1.66252e-04
 Reference value :  1.66252e-04
 Reference value :  1.66253e-04
 Reference value :  1.66254e-04
 Reference value :  1.66255e-04
 Reference value :  1.66256e-04
 Reference value :  1.66259e-04
 Reference value :  1.66265e-04
 Reference value :  1.66302e-04
 Reference value :  1.66500e-04
 Reference value :  1.66500e-04
 Reference value :  1.66500e-04
 Reference value :  1.66501e-04
 Reference value :  1.66502e-04
 Reference value :  1.66503e-04
 Reference value :  1.66505e-04
 Reference value :  1.66506e-04
 Reference value :  1.66508e-04
 Reference value :  1.66510e-04
 Reference value :  1.66512e-04
 Reference value :  1.66514e-04
 Reference value :  1.66515e-04
 Reference value :  1.66518e-04
 Reference value :  1.66523e-04
 Reference value :  1.66539e-04
 Reference value :  1.66554e-04
 Reference value :  1.66568e-04
 Reference value :  1.66598e-04
 Reference value :  1.66632e-04
 Reference value :  1.66680e-04
 Reference value :  1.66750e-04
 Reference value :  1.66750e-04
 Reference value :  1.66750e-04
 Reference value :  1.66750e-04
 Reference value :  1.66752e-04
 Reference value :  1.66753e-04
 Reference value :  1.66754e-04
 Reference value :  1.66755e-04
 Reference value :  1.66756e-04
 Reference value :  1.66762e-04
 Reference value :  1.66810e-04
 Reference value :  1.67000e-04
 Reference value :  1.67000e-04
 Reference value :  1.67001e-04
 Reference value :  1.67002e-04
 Reference value :  1.67004e-04
 Reference value :  1.67006e-04
 Reference value :  1.67010e-04
 Reference value :  1.67026e-04
 Reference value :  1.67250e-04
 Reference value :  1.67250e-04
 Reference value :  1.67251e-04
 Reference value :  1.67252e-04
 Reference value :  1.67254e-04
 Reference value :  1.67255e-04
 Reference value :  1.67256e-04
 Reference value :  1.67259e-04
 Reference value :  1.67262e-04
 Reference value :  1.67284e-04
 Reference value :  1.67500e-04
 Reference value :  1.67500e-04
 Reference value :  1.67500e-04
 Reference value :  1.67501e-04
 Reference value :  1.67502e-04
 Reference value :  1.67504e-04
 Reference value :  1.67505e-04
 Reference value :  1.67507e-04
 Reference value :  1.67509e-04
 Reference value :  1.67510e-04
 Reference value :  1.67512e-04
 Reference value :  1.67515e-04
 Reference value :  1.67518e-04
 Reference value :  1.67526e-04
 Reference value :  1.67545e-04
 Reference value :  1.67565e-04
 Reference value :  1.67597e-04
 Reference value :  1.67750e-04
 Reference value :  1.67750e-04
 Reference value :  1.67752e-04
 Reference value :  1.67754e-04
 Reference value :  1.67756e-04
 Reference value :  1.67785e-04
 Reference value :  1.68000e-04
 Reference value :  1.68000e-04
 Reference value :  1.68001e-04
 Reference value :  1.68002e-04
 Reference value :  1.68003e-04
 Reference value :  1.68004e-04
 Reference value :  1.68006e-04
 Reference value :  1.68006e-04
 Reference value :  1.68008e-04
 Reference value :  1.68010e-04
 Reference value :  1.68014e-04
 Reference value :  1.68069e-04
 Reference value :  1.68250e-04
 Reference value :  1.68250e-04
 Reference value :  1.68250e-04
 Reference value :  1.68251e-04
 Reference value :  1.68252e-04
 Reference value :  1.68253e-04
 Reference value :  1.68254e-04
 Reference value :  1.68255e-04
 Reference value :  1.68257e-04
 Reference value :  1.68264e-04
 Reference value :  1.68347e-04
 Reference value :  1.68500e-04
 Reference value :  1.68500e-04
 Reference value :  1.68500e-04
 Reference value :  1.68501e-04
 Reference value :  1.68503e-04
 Reference value :  1.68504e-04
 Reference value :  1.68505e-04
 Reference value :  1.68507e-04
 Reference value :  1.68510e-04
 Reference value :  1.68513e-04
 Reference value :  1.68515e-04
 Reference value :  1.68517e-04
 Reference value :  1.68519e-04
 Reference value :  1.68522e-04
 Reference value :  1.68526e-04
 Reference value :  1.68530e-04
 Reference value :  1.68548e-04
 Reference value :  1.68586e-04
 Reference value :  1.68750e-04
 Reference value :  1.68750e-04
 Reference value :  1.68751e-04
 Reference value :  1.68752e-04
 Reference value :  1.68753e-04
 Reference value :  1.68754e-04
 Reference value :  1.68757e-04
 Reference value :  1.68763e-04
 Reference value :  1.68867e-04
 Reference value :  1.69000e-04
 Reference value :  1.69000e-04
 Reference value :  1.69001e-04
 Reference value :  1.69002e-04
 Reference value :  1.69003e-04
 Reference value :  1.69004e-04
 Reference value :  1.69006e-04
 Reference value :  1.69007e-04
 Reference value :  1.69010e-04
 Reference value :  1.69015e-04
 Reference value :  1.69069e-04
 Reference value :  1.69250e-04
 Reference value :  1.69250e-04
 Reference value :  1.69250e-04
 Reference value :  1.69251e-04
 Reference value :  1.69252e-04
 Reference value :  1.69254e-04
 Reference value :  1.69255e-04
 Reference value :  1.69256e-04
 Reference value :  1.69259e-04
 Reference value :  1.69265e-04
 Reference value :  1.69284e-04
 Reference value :  1.69500e-04
 Reference value :  1.69500e-04
 Reference value :  1.69500e-04
 Reference value :  1.69500e-04
 Reference value :  1.69501e-04
 Reference value :  1.69502e-04
 Reference value :  1.69503e-04
 Reference value :  1.69504e-04
 Reference value :  1.69504e-04
 Reference value :  1.69505e-04
 Reference value :  1.69507e-04
 Reference value :  1.69509e-04
 Reference value :  1.69510e-04
 Reference value :  1.69512e-04
 Reference value :  1.69518e-04
 Reference value :  1.69533e-04
 Reference value :  1.69576e-04
 Reference value :  1.69690e-04
 Reference value :  1.69750e-04
 Reference value :  1.69750e-04
 Reference value :  1.69750e-04
 Reference value :  1.69751e-04
 Reference value :  1.69752e-04
 Reference value :  1.69753e-04
 Reference value :  1.69755e-04
 Reference value :  1.69758e-04
 Reference value :  1.69774e-04
 Reference value :  1.69879e-04
 Reference value :  1.70000e-04
 Reference value :  1.70000e-04
 Reference value :  1.70000e-04
 Reference value :  1.70000e-04
 Reference value :  1.70000e-04
 Reference value :  1.70000e-04
 Reference value :  1.70002e-04
 Reference value :  1.70003e-04
 Reference value :  1.70004e-04
 Reference value :  1.70005e-04
 Reference value :  1.70010e-04
 Reference value :  1.70023e-04
 Reference value :  1.70034e-04
 Reference value :  1.70040e-04
 Reference value :  1.70060e-04
 Reference value :  1.70156e-04
 Reference value :  1.70250e-04
 Reference value :  1.70250e-04
 Reference value :  1.70251e-04
 Reference value :  1.70253e-04
 Reference value :  1.70254e-04
 Reference value :  1.70256e-04
 Reference value :  1.70284e-04
 Reference value :  1.70500e-04
 Reference value :  1.70500e-04
 Reference value :  1.70501e-04
 Reference value :  1.70502e-04
 Reference value :  1.70503e-04
 Reference value :  1.70505e-04
 Reference value :  1.70509e-04
 Reference value :  1.70513e-04
 Reference value :  1.70518e-04
 Reference value :  1.70578e-04
 Reference value :  1.70750e-04
 Reference value :  1.70750e-04
 Reference value :  1.70750e-04
 Reference value :  1.70752e-04
 Reference value :  1.70753e-04
 Reference value :  1.70754e-04
 Reference value :  1.70755e-04
 Reference value :  1.70756e-04
 Reference value :  1.70761e-04
 Reference value :  1.70781e-04
 Reference value :  1.70934e-04
 Reference value :  1.71000e-04
 Reference value :  1.71000e-04
 Reference value :  1.71000e-04
 Reference value :  1.71000e-04
 Reference value :  1.71001e-04
 Reference value :  1.71002e-04
 Reference value :  1.71003e-04
 Reference value :  1.71003e-04
 Reference value :  1.71005e-04
 Reference value :  1.71006e-04
 Reference value :  1.71009e-04
 Reference value :  1.71010e-04
 Reference value :  1.71013e-04
 Reference value :  1.71015e-04
 Reference value :  1.71016e-04
 Reference value :  1.71019e-04
 Reference value :  1.71024e-04
 Reference value :  1.71033e-04
 Reference value :  1.71039e-04
 Reference value :  1.71047e-04
 Reference value :  1.71059e-04
 Reference value :  1.71072e-04
 Reference value :  1.71099e-04
 Reference value :  1.71250e-04
 Reference value :  1.71250e-04
 Reference value :  1.71250e-04
 Reference value :  1.71252e-04
 Reference value :  1.71253e-04
 Reference value :  1.71254e-04
 Reference value :  1.71258e-04
 Reference value :  1.71286e-04
 Reference value :  1.71500e-04
 Reference value :  1.71500e-04
 Reference value :  1.71500e-04
 Reference value :  1.71500e-04
 Reference value :  1.71501e-04
 Reference value :  1.71502e-04
 Reference value :  1.71503e-04
 Reference value :  1.71504e-04
 Reference value :  1.71506e-04
 Reference value :  1.71506e-04
 Reference value :  1.71508e-04
 Reference value :  1.71510e-04
 Reference value :  1.71515e-04
 Reference value :  1.71569e-04
 Reference value :  1.71750e-04
 Reference value :  1.71750e-04
 Reference value :  1.71750e-04
 Reference value :  1.71751e-04
 Reference value :  1.71752e-04
 Reference value :  1.71753e-04
 Reference value :  1.71754e-04
 Reference value :  1.71755e-04
 Reference value :  1.71756e-04
 Reference value :  1.71758e-04
 Reference value :  1.71760e-04
 Reference value :  1.71784e-04
 Reference value :  1.72000e-04
 Reference value :  1.72000e-04
 Reference value :  1.72000e-04
 Reference value :  1.72001e-04
 Reference value :  1.72001e-04
 Reference value :  1.72002e-04
 Reference value :  1.72003e-04
 Reference value :  1.72005e-04
 Reference value :  1.72006e-04
 Reference value :  1.72008e-04
 Reference value :  1.72010e-04
 Reference value :  1.72012e-04
 Reference value :  1.72014e-04
 Reference value :  1.72016e-04
 Reference value :  1.72019e-04
 Reference value :  1.72031e-04
 Reference value :  1.72131e-04
 Reference value :  1.72250e-04
 Reference value :  1.72250e-04
 Reference value :  1.72250e-04
 Reference value :  1.72251e-04
 Reference value :  1.72252e-04
 Reference value :  1.72253e-04
 Reference value :  1.72254e-04
 Reference value :  1.72256e-04
 Reference value :  1.72262e-04
 Reference value :  1.72310e-04
 Reference value :  1.72500e-04
 Reference value :  1.72500e-04
 Reference value :  1.72500e-04
 Reference value :  1.72501e-04
 Reference value :  1.72501e-04
 Reference value :  1.72502e-04
 Reference value :  1.72503e-04
 Reference value :  1.72505e-04
 Reference value :  1.72506e-04
 Reference value :  1.72508e-04
 Reference value :  1.72510e-04
 Reference value :  1.72515e-04
 Reference value :  1.72569e-04
 Reference value :  1.72750e-04
 Reference value :  1.72750e-04
 Reference value :  1.72750e-04
 Reference value :  1.72750e-04
 Reference value :  1.72751e-04
 Reference value :  1.72752e-04
 Reference value :  1.72753e-04
 Reference value :  1.72754e-04
 Reference value :  1.72755e-04
 Reference value :  1.72758e-04
 Reference value :  1.72762e-04
 Reference value :  1.72774e-04
 Reference value :  1.72836e-04
 Reference value :  1.73000e-04
 Reference value :  1.73000e-04
 Reference value :  1.73000e-04
 Reference value :  1.73000e-04
 Reference value :  1.73001e-04
 Reference value :  1.73002e-04
 Reference value :  1.73003e-04
 Reference value :  1.73005e-04
 Reference value :  1.73006e-04
 Reference value :  1.73009e-04
 Reference value :  1.73010e-04
 Reference value :  1.73012e-04
 Reference value :  1.73014e-04
 Reference value :  1.73015e-04
 Reference value :  1.73018e-04
 Reference value :  1.73021e-04
 Reference value :  1.73025e-04
 Reference value :  1.73039e-04
 Reference value :  1.73114e-04
 Reference value :  1.73192e-04
 Reference value :  1.73250e-04
 Reference value :  1.73250e-04
 Reference value :  1.73250e-04
 Reference value :  1.73250e-04
 Reference value :  1.73251e-04
 Reference value :  1.73252e-04
 Reference value :  1.73253e-04
 Reference value :  1.73254e-04
 Reference value :  1.73256e-04
 Reference value :  1.73260e-04
 Reference value :  1.73285e-04
 Reference value :  1.73500e-04
 Reference value :  1.73500e-04
 Reference value :  1.73500e-04
 Reference value :  1.73500e-04
 Reference value :  1.73500e-04
 Reference value :  1.73501e-04
 Reference value :  1.73502e-04
 Reference value :  1.73503e-04
 Reference value :  1.73503e-04
 Reference value :  1.73504e-04
 Reference value :  1.73506e-04
 Reference value :  1.73506e-04
 Reference value :  1.73508e-04
 Reference value :  1.73511e-04
 Reference value :  1.73526e-04
 Reference value :  1.73626e-04
 Reference value :  1.73750e-04
 Reference value :  1.73750e-04
 Reference value :  1.73750e-04
 Reference value :  1.73750e-04
 Reference value :  1.73751e-04
 Reference value :  1.73752e-04
 Reference value :  1.73753e-04
 Reference value :  1.73754e-04
 Reference value :  1.73755e-04
 Reference value :  1.73756e-04
 Reference value :  1.73759e-04
 Reference value :  1.73762e-04
 Reference value :  1.73774e-04
 Reference value :  1.73836e-04
 Reference value :  1.74000e-04
 Reference value :  1.74000e-04
 Reference value :  1.74000e-04
 Reference value :  1.74000e-04
 Reference value :  1.74000e-04
 Reference value :  1.74001e-04
 Reference value :  1.74002e-04
 Reference value :  1.74003e-04
 Reference value :  1.74003e-04
 Reference value :  1.74005e-04
 Reference value :  1.74006e-04
 Reference value :  1.74008e-04
 Reference value :  1.74010e-04
 Reference value :  1.74012e-04
 Reference value :  1.74014e-04
 Reference value :  1.74015e-04
 Reference value :  1.74018e-04
 Reference value :  1.74025e-04
 Reference value :  1.74053e-04
 Reference value :  1.74091e-04
 Reference value :  1.74135e-04
 Reference value :  1.74174e-04
 Reference value :  1.74250e-04
 Reference value :  1.74250e-04
 Reference value :  1.74250e-04
 Reference value :  1.74251e-04
 Reference value :  1.74252e-04
 Reference value :  1.74253e-04
 Reference value :  1.74254e-04
 Reference value :  1.74255e-04
 Reference value :  1.74258e-04
 Reference value :  1.74272e-04
 Reference value :  1.74362e-04
 Reference value :  1.74500e-04
 Reference value :  1.74500e-04
 Reference value :  1.74500e-04
 Reference value :  1.74501e-04
 Reference value :  1.74501e-04
 Reference value :  1.74502e-04
 Reference value :  1.74503e-04
 Reference value :  1.74504e-04
 Reference value :  1.74506e-04
 Reference value :  1.74506e-04
 Reference value :  1.74508e-04
 Reference value :  1.74511e-04
 Reference value :  1.74519e-04
 Reference value :  1.74626e-04
 Reference value :  1.74750e-04
 Reference value :  1.74750e-04
 Reference value :  1.74752e-04
 Reference value :  1.74754e-04
 Reference value :  1.74755e-04
 Reference value :  1.74758e-04
 Reference value :  1.74765e-04
 Reference value :  1.74905e-04
 Reference value :  1.75000e-04
 Reference value :  1.75000e-04
 Reference value :  1.75001e-04
 Reference value :  1.75003e-04
 Reference value :  1.75004e-04
 Reference value :  1.75005e-04
 Reference value :  1.75007e-04
 Reference value :  1.75010e-04
 Reference value :  1.75012e-04
 Reference value :  1.75014e-04
 Reference value :  1.75015e-04
 Reference value :  1.75017e-04
 Reference value :  1.75019e-04
 Reference value :  1.75025e-04
 Reference value :  1.75046e-04
 Reference value :  1.75062e-04
 Reference value :  1.75076e-04
 Reference value :  1.75090e-04
 Reference value :  1.75108e-04
 Reference value :  1.75129e-04
 Reference value :  1.75156e-04
 Reference value :  1.75224e-04
 Reference value :  1.75250e-04
 Reference value :  1.75250e-04
 Reference value :  1.75251e-04
 Reference value :  1.75252e-04
 Reference value :  1.75254e-04
 Reference value :  1.75255e-04
 Reference value :  1.75260e-04
 Reference value :  1.75285e-04
 Reference value :  1.75500e-04
 Reference value :  1.75500e-04
 Reference value :  1.75500e-04
 Reference value :  1.75500e-04
 Reference value :  1.75501e-04
 Reference value :  1.75501e-04
 Reference value :  1.75502e-04
 Reference value :  1.75503e-04
 Reference value :  1.75503e-04
 Reference value :  1.75505e-04
 Reference value :  1.75506e-04
 Reference value :  1.75508e-04
 Reference value :  1.75510e-04
 Reference value :  1.75512e-04
 Reference value :  1.75526e-04
 Reference value :  1.75750e-04
 Reference value :  1.75750e-04
 Reference value :  1.75750e-04
 Reference value :  1.75751e-04
 Reference value :  1.75752e-04
 Reference value :  1.75754e-04
 Reference value :  1.75755e-04
 Reference value :  1.75756e-04
 Reference value :  1.75762e-04
 Reference value :  1.75802e-04
 Reference value :  1.76000e-04
 Reference value :  1.76000e-04
 Reference value :  1.76000e-04
 Reference value :  1.76001e-04
 Reference value :  1.76002e-04
 Reference value :  1.76003e-04
 Reference value :  1.76005e-04
 Reference value :  1.76008e-04
 Reference value :  1.76011e-04
 Reference value :  1.76013e-04
 Reference value :  1.76015e-04
 Reference value :  1.76018e-04
 Reference value :  1.76031e-04
 Reference value :  1.76052e-04
 Reference value :  1.76076e-04
 Reference value :  1.76241e-04
 Reference value :  1.76250e-04
 Reference value :  1.76250e-04
 Reference value :  1.76252e-04
 Reference value :  1.76253e-04
 Reference value :  1.76255e-04
 Reference value :  1.76260e-04
 Reference value :  1.76312e-04
 Reference value :  1.76500e-04
 Reference value :  1.76500e-04
 Reference value :  1.76501e-04
 Reference value :  1.76502e-04
 Reference value :  1.76504e-04
 Reference value :  1.76506e-04
 Reference value :  1.76508e-04
 Reference value :  1.76511e-04
 Reference value :  1.76572e-04
 Reference value :  1.76750e-04
 Reference value :  1.76750e-04
 Reference value :  1.76752e-04
 Reference value :  1.76753e-04
 Reference value :  1.76755e-04
 Reference value :  1.76757e-04
 Reference value :  1.76764e-04
 Reference value :  1.76847e-04
 Reference value :  1.77000e-04
 Reference value :  1.77000e-04
 Reference value :  1.77000e-04
 Reference value :  1.77001e-04
 Reference value :  1.77002e-04
 Reference value :  1.77003e-04
 Reference value :  1.77005e-04
 Reference value :  1.77007e-04
 Reference value :  1.77010e-04
 Reference value :  1.77015e-04
 Reference value :  1.77017e-04
 Reference value :  1.77020e-04
 Reference value :  1.77033e-04
 Reference value :  1.77046e-04
 Reference value :  1.77077e-04
 Reference value :  1.77230e-04
 Reference value :  1.77250e-04
 Reference value :  1.77250e-04
 Reference value :  1.77252e-04
 Reference value :  1.77254e-04
 Reference value :  1.77256e-04
 Reference value :  1.77273e-04
 Reference value :  1.77472e-04
 Reference value :  1.77500e-04
 Reference value :  1.77500e-04
 Reference value :  1.77501e-04
 Reference value :  1.77502e-04
 Reference value :  1.77504e-04
 Reference value :  1.77506e-04
 Reference value :  1.77508e-04
 Reference value :  1.77511e-04
 Reference value :  1.77512e-04
 Reference value :  1.77626e-04
 Reference value :  1.77750e-04
 Reference value :  1.77750e-04
 Reference value :  1.77750e-04
 Reference value :  1.77750e-04
 Reference value :  1.77752e-04
 Reference value :  1.77753e-04
 Reference value :  1.77755e-04
 Reference value :  1.77757e-04
 Reference value :  1.77762e-04
 Reference value :  1.77801e-04
 Reference value :  1.78000e-04
 Reference value :  1.78000e-04
 Reference value :  1.78001e-04
 Reference value :  1.78002e-04
 Reference value :  1.78004e-04
 Reference value :  1.78005e-04
 Reference value :  1.78006e-04
 Reference value :  1.78008e-04
 Reference value :  1.78010e-04
 Reference value :  1.78014e-04
 Reference value :  1.78021e-04
 Reference value :  1.78074e-04
 Reference value :  1.78124e-04
 Reference value :  1.78232e-04
 Reference value :  1.78250e-04
 Reference value :  1.78250e-04
 Reference value :  1.78252e-04
 Reference value :  1.78255e-04
 Reference value :  1.78258e-04
 Reference value :  1.78289e-04
No. of Data Rows : 25728
ngspice-44 done
