
Note: Compatibility modes selected: hs a


Circuit: ** sch_path: /home/ece/cace/sar-adc-using-sky130-pdk/runs/run_2025-09-12_17-37-09/parameters/sndr/run_0/sndr_enob_fom.sch

option SCALE: Scale is set to 1e-06 for instance and model parameters
option SCALE: Scale is set to 1e-06 for instance and model parameters
option SCALE: Scale is set to 1e-06 for instance and model parameters
option SCALE: Scale is set to 1e-06 for instance and model parameters
Doing analysis at TEMP = 27.000000 and TNOM = 27.000000

Using KLU as Direct Linear Solver
Operating point simulation skipped by 'uic',
  now using transient initial conditions.
 Reference value :  1.00000e-12
 Reference value :  1.02772e-12
 Reference value :  1.08316e-12
 Reference value :  1.19404e-12
 Reference value :  1.33846e-12
 Reference value :  1.62730e-12
 Reference value :  2.20497e-12
 Reference value :  3.04350e-12
 Reference value :  3.95012e-12
 Reference value :  5.17000e-12
 Reference value :  6.91552e-12
 Reference value :  1.00666e-11
 Reference value :  1.37623e-11
 Reference value :  2.04512e-11
 Reference value :  2.73960e-11
 Reference value :  3.62706e-11
 Reference value :  4.72574e-11
 Reference value :  6.41550e-11
 Reference value :  8.48668e-11
 Reference value :  1.00000e-10
 Reference value :  1.01244e-10
 Reference value :  1.03732e-10
 Reference value :  1.08708e-10
 Reference value :  1.18660e-10
 Reference value :  1.38565e-10
 Reference value :  1.78373e-10
 Reference value :  2.57990e-10
 Reference value :  4.09778e-10
 Reference value :  5.74493e-10
 Reference value :  8.42371e-10
 Reference value :  1.20420e-09
 Reference value :  1.72883e-09
 Reference value :  2.45757e-09
 Reference value :  3.24501e-09
 Reference value :  4.25477e-09
 Reference value :  5.18362e-09
 Reference value :  6.13544e-09
 Reference value :  7.41266e-09
 Reference value :  8.70107e-09
 Reference value :  9.87879e-09
 Reference value :  1.07068e-08
 Reference value :  1.15561e-08
 Reference value :  1.25460e-08
 Reference value :  1.35487e-08
 Reference value :  1.55542e-08
 Reference value :  1.86091e-08
 Reference value :  2.28501e-08
 Reference value :  2.79167e-08
 Reference value :  3.18995e-08
 Reference value :  3.60356e-08
 Reference value :  4.02809e-08
 Reference value :  4.41204e-08
 Reference value :  5.17992e-08
 Reference value :  6.24144e-08
 Reference value :  8.23782e-08
 Reference value :  1.22306e-07
 Reference value :  1.85934e-07
 Reference value :  2.50100e-07
 Reference value :  2.50110e-07
 Reference value :  2.50130e-07
 Reference value :  2.50170e-07
 Reference value :  2.50200e-07
 Reference value :  2.50201e-07
 Reference value :  2.50202e-07
 Reference value :  2.50204e-07
 Reference value :  2.50208e-07
 Reference value :  2.50216e-07
 Reference value :  2.50233e-07
 Reference value :  2.50267e-07
 Reference value :  2.50335e-07
 Reference value :  2.50428e-07
 Reference value :  2.50611e-07
 Reference value :  2.50792e-07
 Reference value :  2.51135e-07
 Reference value :  2.51558e-07
 Reference value :  2.52259e-07
 Reference value :  2.52900e-07
 Reference value :  2.53739e-07
 Reference value :  2.54754e-07
 Reference value :  2.55923e-07
 Reference value :  2.57000e-07
 Reference value :  2.58032e-07
 Reference value :  2.59197e-07
 Reference value :  2.60299e-07
 Reference value :  2.62113e-07
 Reference value :  2.64722e-07
 Reference value :  2.67421e-07
 Reference value :  2.72043e-07
 Reference value :  2.78806e-07
 Reference value :  2.92333e-07
 Reference value :  3.19385e-07
 Reference value :  3.70346e-07
 Reference value :  4.72267e-07
 Reference value :  5.00000e-07
 Reference value :  5.00010e-07
 Reference value :  5.00030e-07
 Reference value :  5.00070e-07
 Reference value :  5.00100e-07
 Reference value :  5.00104e-07
 Reference value :  5.00113e-07
 Reference value :  5.00130e-07
 Reference value :  5.00164e-07
 Reference value :  5.00232e-07
 Reference value :  5.00369e-07
 Reference value :  5.00560e-07
 Reference value :  5.00941e-07
 Reference value :  5.01536e-07
 Reference value :  5.02163e-07
 Reference value :  5.02854e-07
 Reference value :  5.03676e-07
 Reference value :  5.04428e-07
 Reference value :  5.05342e-07
 Reference value :  5.06300e-07
 Reference value :  5.07291e-07
 Reference value :  5.08691e-07
 Reference value :  5.10115e-07
 Reference value :  5.12675e-07
 Reference value :  5.15600e-07
 Reference value :  5.17748e-07
 Reference value :  5.20194e-07
 Reference value :  5.22649e-07
 Reference value :  5.25203e-07
 Reference value :  5.28411e-07
 Reference value :  5.33033e-07
 Reference value :  5.39375e-07
 Reference value :  5.48758e-07
 Reference value :  5.67524e-07
 Reference value :  5.94942e-07
 Reference value :  6.46002e-07
 Reference value :  7.44578e-07
 Reference value :  7.50100e-07
 Reference value :  7.50110e-07
 Reference value :  7.50130e-07
 Reference value :  7.50170e-07
 Reference value :  7.50200e-07
 Reference value :  7.50201e-07
 Reference value :  7.50202e-07
 Reference value :  7.50205e-07
 Reference value :  7.50212e-07
 Reference value :  7.50224e-07
 Reference value :  7.50249e-07
 Reference value :  7.50298e-07
 Reference value :  7.50396e-07
 Reference value :  7.50594e-07
 Reference value :  7.50984e-07
 Reference value :  7.51569e-07
 Reference value :  7.52239e-07
 Reference value :  7.52985e-07
 Reference value :  7.53829e-07
 Reference value :  7.54923e-07
 Reference value :  7.55816e-07
 Reference value :  7.56877e-07
 Reference value :  7.57785e-07
 Reference value :  7.58768e-07
 Reference value :  7.59882e-07
 Reference value :  7.61132e-07
 Reference value :  7.63633e-07
 Reference value :  7.66447e-07
 Reference value :  7.70881e-07
 Reference value :  7.76848e-07
 Reference value :  7.88781e-07
 Reference value :  8.12649e-07
 Reference value :  8.60151e-07
 Reference value :  9.55154e-07
 Reference value :  1.00000e-06
 Reference value :  1.00001e-06
 Reference value :  1.00003e-06
 Reference value :  1.00007e-06
 Reference value :  1.00010e-06
 Reference value :  1.00010e-06
 Reference value :  1.00011e-06
 Reference value :  1.00013e-06
 Reference value :  1.00016e-06
 Reference value :  1.00023e-06
 Reference value :  1.00037e-06
 Reference value :  1.00056e-06
 Reference value :  1.00094e-06
 Reference value :  1.00153e-06
 Reference value :  1.00216e-06
 Reference value :  1.00285e-06
 Reference value :  1.00357e-06
 Reference value :  1.00432e-06
 Reference value :  1.00516e-06
 Reference value :  1.00607e-06
 Reference value :  1.00702e-06
 Reference value :  1.00795e-06
 Reference value :  1.00904e-06
 Reference value :  1.01001e-06
 Reference value :  1.01108e-06
 Reference value :  1.01259e-06
 Reference value :  1.01427e-06
 Reference value :  1.01717e-06
 Reference value :  1.02013e-06
 Reference value :  1.02249e-06
 Reference value :  1.02462e-06
 Reference value :  1.02615e-06
 Reference value :  1.02771e-06
 Reference value :  1.02917e-06
 Reference value :  1.03074e-06
 Reference value :  1.03251e-06
 Reference value :  1.03500e-06
 Reference value :  1.03757e-06
 Reference value :  1.04224e-06
 Reference value :  1.04907e-06
 Reference value :  1.05961e-06
 Reference value :  1.07738e-06
 Reference value :  1.10517e-06
 Reference value :  1.14496e-06
 Reference value :  1.22456e-06
 Reference value :  1.25010e-06
 Reference value :  1.25011e-06
 Reference value :  1.25013e-06
 Reference value :  1.25017e-06
 Reference value :  1.25020e-06
 Reference value :  1.25020e-06
 Reference value :  1.25020e-06
 Reference value :  1.25021e-06
 Reference value :  1.25021e-06
 Reference value :  1.25022e-06
 Reference value :  1.25025e-06
 Reference value :  1.25030e-06
 Reference value :  1.25040e-06
 Reference value :  1.25059e-06
 Reference value :  1.25094e-06
 Reference value :  1.25156e-06
 Reference value :  1.25219e-06
 Reference value :  1.25296e-06
 Reference value :  1.25378e-06
 Reference value :  1.25486e-06
 Reference value :  1.25579e-06
 Reference value :  1.25687e-06
 Reference value :  1.25800e-06
 Reference value :  1.25906e-06
 Reference value :  1.26088e-06
 Reference value :  1.26261e-06
 Reference value :  1.26545e-06
 Reference value :  1.26899e-06
 Reference value :  1.27436e-06
 Reference value :  1.28510e-06
 Reference value :  1.30371e-06
 Reference value :  1.33784e-06
 Reference value :  1.40610e-06
 Reference value :  1.50000e-06
 Reference value :  1.50001e-06
 Reference value :  1.50003e-06
 Reference value :  1.50007e-06
 Reference value :  1.50010e-06
 Reference value :  1.50010e-06
 Reference value :  1.50011e-06
 Reference value :  1.50013e-06
 Reference value :  1.50016e-06
 Reference value :  1.50023e-06
 Reference value :  1.50037e-06
 Reference value :  1.50056e-06
 Reference value :  1.50093e-06
 Reference value :  1.50161e-06
 Reference value :  1.50223e-06
 Reference value :  1.50291e-06
 Reference value :  1.50362e-06
 Reference value :  1.50438e-06
 Reference value :  1.50523e-06
 Reference value :  1.50615e-06
 Reference value :  1.50719e-06
 Reference value :  1.50853e-06
 Reference value :  1.50991e-06
 Reference value :  1.51148e-06
 Reference value :  1.51304e-06
 Reference value :  1.51463e-06
 Reference value :  1.51657e-06
 Reference value :  1.51844e-06
 Reference value :  1.52078e-06
 Reference value :  1.52293e-06
 Reference value :  1.52722e-06
 Reference value :  1.53579e-06
 Reference value :  1.54892e-06
 Reference value :  1.57518e-06
 Reference value :  1.62770e-06
 Reference value :  1.73274e-06
 Reference value :  1.75010e-06
 Reference value :  1.75011e-06
 Reference value :  1.75013e-06
 Reference value :  1.75017e-06
 Reference value :  1.75020e-06
 Reference value :  1.75020e-06
 Reference value :  1.75020e-06
 Reference value :  1.75021e-06
 Reference value :  1.75021e-06
 Reference value :  1.75022e-06
 Reference value :  1.75025e-06
 Reference value :  1.75030e-06
 Reference value :  1.75039e-06
 Reference value :  1.75059e-06
 Reference value :  1.75093e-06
 Reference value :  1.75154e-06
 Reference value :  1.75216e-06
 Reference value :  1.75295e-06
 Reference value :  1.75376e-06
 Reference value :  1.75483e-06
 Reference value :  1.75576e-06
 Reference value :  1.75682e-06
 Reference value :  1.75776e-06
 Reference value :  1.75875e-06
 Reference value :  1.75989e-06
 Reference value :  1.76117e-06
 Reference value :  1.76372e-06
 Reference value :  1.76652e-06
 Reference value :  1.77104e-06
 Reference value :  1.77711e-06
 Reference value :  1.78924e-06
 Reference value :  1.81350e-06
 Reference value :  1.86202e-06
 Reference value :  1.95907e-06
 Reference value :  2.00000e-06
 Reference value :  2.00001e-06
 Reference value :  2.00003e-06
 Reference value :  2.00007e-06
 Reference value :  2.00010e-06
 Reference value :  2.00010e-06
 Reference value :  2.00011e-06
 Reference value :  2.00013e-06
 Reference value :  2.00016e-06
 Reference value :  2.00023e-06
 Reference value :  2.00037e-06
 Reference value :  2.00055e-06
 Reference value :  2.00092e-06
 Reference value :  2.00160e-06
 Reference value :  2.00223e-06
 Reference value :  2.00291e-06
 Reference value :  2.00363e-06
 Reference value :  2.00439e-06
 Reference value :  2.00523e-06
 Reference value :  2.00615e-06
 Reference value :  2.00717e-06
 Reference value :  2.00818e-06
 Reference value :  2.00924e-06
 Reference value :  2.01025e-06
 Reference value :  2.01134e-06
 Reference value :  2.01279e-06
 Reference value :  2.01462e-06
 Reference value :  2.01758e-06
 Reference value :  2.02043e-06
 Reference value :  2.02282e-06
 Reference value :  2.02486e-06
 Reference value :  2.02692e-06
 Reference value :  2.02893e-06
 Reference value :  2.03101e-06
 Reference value :  2.03338e-06
 Reference value :  2.03588e-06
 Reference value :  2.03883e-06
 Reference value :  2.04329e-06
 Reference value :  2.04943e-06
 Reference value :  2.05935e-06
 Reference value :  2.07327e-06
 Reference value :  2.08778e-06
 Reference value :  2.10270e-06
 Reference value :  2.11339e-06
 Reference value :  2.12343e-06
 Reference value :  2.13348e-06
 Reference value :  2.14037e-06
 Reference value :  2.14838e-06
 Reference value :  2.15883e-06
 Reference value :  2.17349e-06
 Reference value :  2.19375e-06
 Reference value :  2.22243e-06
 Reference value :  2.25010e-06
 Reference value :  2.25011e-06
 Reference value :  2.25013e-06
 Reference value :  2.25017e-06
 Reference value :  2.25020e-06
 Reference value :  2.25020e-06
 Reference value :  2.25020e-06
 Reference value :  2.25021e-06
 Reference value :  2.25021e-06
 Reference value :  2.25022e-06
 Reference value :  2.25025e-06
 Reference value :  2.25030e-06
 Reference value :  2.25039e-06
 Reference value :  2.25059e-06
 Reference value :  2.25092e-06
 Reference value :  2.25154e-06
 Reference value :  2.25216e-06
 Reference value :  2.25295e-06
 Reference value :  2.25375e-06
 Reference value :  2.25483e-06
 Reference value :  2.25571e-06
 Reference value :  2.25674e-06
 Reference value :  2.25772e-06
 Reference value :  2.25875e-06
 Reference value :  2.26047e-06
 Reference value :  2.26209e-06
 Reference value :  2.26495e-06
 Reference value :  2.26809e-06
 Reference value :  2.27315e-06
 Reference value :  2.28271e-06
 Reference value :  2.30181e-06
 Reference value :  2.33824e-06
 Reference value :  2.41111e-06
 Reference value :  2.49792e-06
 Reference value :  2.50000e-06
 Reference value :  2.50001e-06
 Reference value :  2.50003e-06
 Reference value :  2.50007e-06
 Reference value :  2.50010e-06
 Reference value :  2.50010e-06
 Reference value :  2.50011e-06
 Reference value :  2.50013e-06
 Reference value :  2.50016e-06
 Reference value :  2.50023e-06
 Reference value :  2.50037e-06
 Reference value :  2.50055e-06
 Reference value :  2.50092e-06
 Reference value :  2.50160e-06
 Reference value :  2.50223e-06
 Reference value :  2.50286e-06
 Reference value :  2.50357e-06
 Reference value :  2.50431e-06
 Reference value :  2.50516e-06
 Reference value :  2.50607e-06
 Reference value :  2.50711e-06
 Reference value :  2.50845e-06
 Reference value :  2.50982e-06
 Reference value :  2.51139e-06
 Reference value :  2.51280e-06
 Reference value :  2.51427e-06
 Reference value :  2.51632e-06
 Reference value :  2.51822e-06
 Reference value :  2.52033e-06
 Reference value :  2.52308e-06
 Reference value :  2.52648e-06
 Reference value :  2.53212e-06
 Reference value :  2.54062e-06
 Reference value :  2.55510e-06
 Reference value :  2.58006e-06
 Reference value :  2.62270e-06
 Reference value :  2.70214e-06
 Reference value :  2.75010e-06
 Reference value :  2.75011e-06
 Reference value :  2.75013e-06
 Reference value :  2.75017e-06
 Reference value :  2.75020e-06
 Reference value :  2.75020e-06
 Reference value :  2.75020e-06
 Reference value :  2.75021e-06
 Reference value :  2.75021e-06
 Reference value :  2.75022e-06
 Reference value :  2.75025e-06
 Reference value :  2.75030e-06
 Reference value :  2.75040e-06
 Reference value :  2.75059e-06
 Reference value :  2.75094e-06
 Reference value :  2.75155e-06
 Reference value :  2.75218e-06
 Reference value :  2.75295e-06
 Reference value :  2.75377e-06
 Reference value :  2.75484e-06
 Reference value :  2.75575e-06
 Reference value :  2.75682e-06
 Reference value :  2.75775e-06
 Reference value :  2.75874e-06
 Reference value :  2.75988e-06
 Reference value :  2.76115e-06
 Reference value :  2.76246e-06
 Reference value :  2.76423e-06
 Reference value :  2.76650e-06
 Reference value :  2.76925e-06
 Reference value :  2.77296e-06
 Reference value :  2.77814e-06
 Reference value :  2.78849e-06
 Reference value :  2.80736e-06
 Reference value :  2.84510e-06
 Reference value :  2.92058e-06
 Reference value :  3.00000e-06
 Reference value :  3.00001e-06
 Reference value :  3.00003e-06
 Reference value :  3.00007e-06
 Reference value :  3.00010e-06
 Reference value :  3.00010e-06
 Reference value :  3.00011e-06
 Reference value :  3.00013e-06
 Reference value :  3.00016e-06
 Reference value :  3.00023e-06
 Reference value :  3.00037e-06
 Reference value :  3.00055e-06
 Reference value :  3.00092e-06
 Reference value :  3.00160e-06
 Reference value :  3.00223e-06
 Reference value :  3.00291e-06
 Reference value :  3.00362e-06
 Reference value :  3.00438e-06
 Reference value :  3.00522e-06
 Reference value :  3.00612e-06
 Reference value :  3.00707e-06
 Reference value :  3.00793e-06
 Reference value :  3.00885e-06
 Reference value :  3.00983e-06
 Reference value :  3.01077e-06
 Reference value :  3.01210e-06
 Reference value :  3.01350e-06
 Reference value :  3.01566e-06
 Reference value :  3.01721e-06
 Reference value :  3.01892e-06
 Reference value :  3.02050e-06
 Reference value :  3.02230e-06
 Reference value :  3.02398e-06
 Reference value :  3.02549e-06
 Reference value :  3.02721e-06
 Reference value :  3.02872e-06
 Reference value :  3.03029e-06
 Reference value :  3.03218e-06
 Reference value :  3.03453e-06
 Reference value :  3.03716e-06
 Reference value :  3.04143e-06
 Reference value :  3.04806e-06
 Reference value :  3.05862e-06
 Reference value :  3.06853e-06
 Reference value :  3.07718e-06
 Reference value :  3.08140e-06
 Reference value :  3.08549e-06
 Reference value :  3.08948e-06
 Reference value :  3.09487e-06
 Reference value :  3.10190e-06
 Reference value :  3.11141e-06
 Reference value :  3.12497e-06
 Reference value :  3.14391e-06
 Reference value :  3.17146e-06
 Reference value :  3.21122e-06
 Reference value :  3.25010e-06
 Reference value :  3.25011e-06
 Reference value :  3.25013e-06
 Reference value :  3.25017e-06
 Reference value :  3.25020e-06
 Reference value :  3.25020e-06
 Reference value :  3.25020e-06
 Reference value :  3.25021e-06
 Reference value :  3.25021e-06
 Reference value :  3.25022e-06
 Reference value :  3.25025e-06
 Reference value :  3.25030e-06
 Reference value :  3.25040e-06
 Reference value :  3.25059e-06
 Reference value :  3.25094e-06
 Reference value :  3.25155e-06
 Reference value :  3.25218e-06
 Reference value :  3.25295e-06
 Reference value :  3.25377e-06
 Reference value :  3.25483e-06
 Reference value :  3.25578e-06
 Reference value :  3.25687e-06
 Reference value :  3.25798e-06
 Reference value :  3.25905e-06
 Reference value :  3.26084e-06
 Reference value :  3.26259e-06
 Reference value :  3.26540e-06
 Reference value :  3.26895e-06
 Reference value :  3.27426e-06
 Reference value :  3.28487e-06
 Reference value :  3.30335e-06
 Reference value :  3.33703e-06
 Reference value :  3.40439e-06
 Reference value :  3.50000e-06
 Reference value :  3.50001e-06
 Reference value :  3.50003e-06
 Reference value :  3.50007e-06
 Reference value :  3.50010e-06
 Reference value :  3.50010e-06
 Reference value :  3.50011e-06
 Reference value :  3.50013e-06
 Reference value :  3.50016e-06
 Reference value :  3.50023e-06
 Reference value :  3.50037e-06
 Reference value :  3.50056e-06
 Reference value :  3.50093e-06
 Reference value :  3.50161e-06
 Reference value :  3.50223e-06
 Reference value :  3.50291e-06
 Reference value :  3.50362e-06
 Reference value :  3.50438e-06
 Reference value :  3.50523e-06
 Reference value :  3.50615e-06
 Reference value :  3.50711e-06
 Reference value :  3.50847e-06
 Reference value :  3.50978e-06
 Reference value :  3.51139e-06
 Reference value :  3.51288e-06
 Reference value :  3.51443e-06
 Reference value :  3.51596e-06
 Reference value :  3.51767e-06
 Reference value :  3.51944e-06
 Reference value :  3.52137e-06
 Reference value :  3.52522e-06
 Reference value :  3.53289e-06
 Reference value :  3.54587e-06
 Reference value :  3.57184e-06
 Reference value :  3.62376e-06
 Reference value :  3.72762e-06
 Reference value :  3.75010e-06
 Reference value :  3.75011e-06
 Reference value :  3.75013e-06
 Reference value :  3.75017e-06
 Reference value :  3.75020e-06
 Reference value :  3.75020e-06
 Reference value :  3.75020e-06
 Reference value :  3.75021e-06
 Reference value :  3.75021e-06
 Reference value :  3.75022e-06
 Reference value :  3.75025e-06
 Reference value :  3.75030e-06
 Reference value :  3.75039e-06
 Reference value :  3.75059e-06
 Reference value :  3.75093e-06
 Reference value :  3.75154e-06
 Reference value :  3.75216e-06
 Reference value :  3.75294e-06
 Reference value :  3.75375e-06
 Reference value :  3.75482e-06
 Reference value :  3.75575e-06
 Reference value :  3.75683e-06
 Reference value :  3.75777e-06
 Reference value :  3.75877e-06
 Reference value :  3.75991e-06
 Reference value :  3.76119e-06
 Reference value :  3.76374e-06
 Reference value :  3.76656e-06
 Reference value :  3.77109e-06
 Reference value :  3.77722e-06
 Reference value :  3.78949e-06
 Reference value :  3.81402e-06
 Reference value :  3.86309e-06
 Reference value :  3.96123e-06
 Reference value :  4.00000e-06
 Reference value :  4.00001e-06
 Reference value :  4.00003e-06
 Reference value :  4.00007e-06
 Reference value :  4.00010e-06
 Reference value :  4.00010e-06
 Reference value :  4.00011e-06
 Reference value :  4.00013e-06
 Reference value :  4.00016e-06
 Reference value :  4.00023e-06
 Reference value :  4.00037e-06
 Reference value :  4.00055e-06
 Reference value :  4.00092e-06
 Reference value :  4.00160e-06
 Reference value :  4.00223e-06
 Reference value :  4.00291e-06
 Reference value :  4.00363e-06
 Reference value :  4.00439e-06
 Reference value :  4.00523e-06
 Reference value :  4.00615e-06
 Reference value :  4.00717e-06
 Reference value :  4.00818e-06
 Reference value :  4.00913e-06
 Reference value :  4.01013e-06
 Reference value :  4.01117e-06
 Reference value :  4.01254e-06
 Reference value :  4.01441e-06
 Reference value :  4.01726e-06
 Reference value :  4.02017e-06
 Reference value :  4.02254e-06
 Reference value :  4.02446e-06
 Reference value :  4.02627e-06
 Reference value :  4.02828e-06
 Reference value :  4.03017e-06
 Reference value :  4.03235e-06
 Reference value :  4.03472e-06
 Reference value :  4.03806e-06
 Reference value :  4.04200e-06
 Reference value :  4.04779e-06
 Reference value :  4.05507e-06
 Reference value :  4.06295e-06
 Reference value :  4.06900e-06
 Reference value :  4.07546e-06
 Reference value :  4.08104e-06
 Reference value :  4.08767e-06
 Reference value :  4.09511e-06
 Reference value :  4.10169e-06
 Reference value :  4.10961e-06
 Reference value :  4.12547e-06
 Reference value :  4.14895e-06
 Reference value :  4.18101e-06
 Reference value :  4.22065e-06
 Reference value :  4.25010e-06
 Reference value :  4.25011e-06
 Reference value :  4.25013e-06
 Reference value :  4.25017e-06
 Reference value :  4.25020e-06
 Reference value :  4.25020e-06
 Reference value :  4.25020e-06
 Reference value :  4.25021e-06
 Reference value :  4.25021e-06
 Reference value :  4.25022e-06
 Reference value :  4.25025e-06
 Reference value :  4.25030e-06
 Reference value :  4.25039e-06
 Reference value :  4.25059e-06
 Reference value :  4.25092e-06
 Reference value :  4.25154e-06
 Reference value :  4.25216e-06
 Reference value :  4.25294e-06
 Reference value :  4.25375e-06
 Reference value :  4.25481e-06
 Reference value :  4.25569e-06
 Reference value :  4.25672e-06
 Reference value :  4.25770e-06
 Reference value :  4.25872e-06
 Reference value :  4.26044e-06
 Reference value :  4.26203e-06
 Reference value :  4.26489e-06
 Reference value :  4.26799e-06
 Reference value :  4.27305e-06
 Reference value :  4.28193e-06
 Reference value :  4.29968e-06
 Reference value :  4.33519e-06
 Reference value :  4.40621e-06
 Reference value :  4.50000e-06
 Reference value :  4.50001e-06
 Reference value :  4.50003e-06
 Reference value :  4.50007e-06
 Reference value :  4.50010e-06
 Reference value :  4.50010e-06
 Reference value :  4.50011e-06
 Reference value :  4.50013e-06
 Reference value :  4.50016e-06
 Reference value :  4.50023e-06
 Reference value :  4.50037e-06
 Reference value :  4.50056e-06
 Reference value :  4.50092e-06
 Reference value :  4.50161e-06
 Reference value :  4.50223e-06
 Reference value :  4.50286e-06
 Reference value :  4.50357e-06
 Reference value :  4.50431e-06
 Reference value :  4.50516e-06
 Reference value :  4.50606e-06
 Reference value :  4.50702e-06
 Reference value :  4.50838e-06
 Reference value :  4.50965e-06
 Reference value :  4.51115e-06
 Reference value :  4.51248e-06
 Reference value :  4.51389e-06
 Reference value :  4.51531e-06
 Reference value :  4.51699e-06
 Reference value :  4.51879e-06
 Reference value :  4.52066e-06
 Reference value :  4.52439e-06
 Reference value :  4.53187e-06
 Reference value :  4.54489e-06
 Reference value :  4.57093e-06
 Reference value :  4.62301e-06
 Reference value :  4.72718e-06
 Reference value :  4.75010e-06
 Reference value :  4.75011e-06
 Reference value :  4.75013e-06
 Reference value :  4.75017e-06
 Reference value :  4.75020e-06
 Reference value :  4.75020e-06
 Reference value :  4.75020e-06
 Reference value :  4.75021e-06
 Reference value :  4.75021e-06
 Reference value :  4.75022e-06
 Reference value :  4.75025e-06
 Reference value :  4.75030e-06
 Reference value :  4.75039e-06
 Reference value :  4.75059e-06
 Reference value :  4.75092e-06
 Reference value :  4.75154e-06
 Reference value :  4.75216e-06
 Reference value :  4.75294e-06
 Reference value :  4.75375e-06
 Reference value :  4.75481e-06
 Reference value :  4.75573e-06
 Reference value :  4.75680e-06
 Reference value :  4.75774e-06
 Reference value :  4.75874e-06
 Reference value :  4.75987e-06
 Reference value :  4.76114e-06
 Reference value :  4.76241e-06
 Reference value :  4.76421e-06
 Reference value :  4.76638e-06
 Reference value :  4.76914e-06
 Reference value :  4.77275e-06
 Reference value :  4.77786e-06
 Reference value :  4.78809e-06
 Reference value :  4.80443e-06
 Reference value :  4.83711e-06
 Reference value :  4.90248e-06
 Reference value :  5.00000e-06
 Reference value :  5.00001e-06
 Reference value :  5.00003e-06
 Reference value :  5.00007e-06
 Reference value :  5.00010e-06
 Reference value :  5.00010e-06
 Reference value :  5.00011e-06
 Reference value :  5.00013e-06
 Reference value :  5.00016e-06
 Reference value :  5.00023e-06
 Reference value :  5.00037e-06
 Reference value :  5.00055e-06
 Reference value :  5.00092e-06
 Reference value :  5.00160e-06
 Reference value :  5.00223e-06
 Reference value :  5.00291e-06
 Reference value :  5.00363e-06
 Reference value :  5.00440e-06
 Reference value :  5.00524e-06
 Reference value :  5.00615e-06
 Reference value :  5.00702e-06
 Reference value :  5.00792e-06
 Reference value :  5.00885e-06
 Reference value :  5.00984e-06
 Reference value :  5.01084e-06
 Reference value :  5.01222e-06
 Reference value :  5.01390e-06
 Reference value :  5.01542e-06
 Reference value :  5.01707e-06
 Reference value :  5.01876e-06
 Reference value :  5.02054e-06
 Reference value :  5.02231e-06
 Reference value :  5.02369e-06
 Reference value :  5.02503e-06
 Reference value :  5.02672e-06
 Reference value :  5.02835e-06
 Reference value :  5.02989e-06
 Reference value :  5.03195e-06
 Reference value :  5.03396e-06
 Reference value :  5.03623e-06
 Reference value :  5.03857e-06
 Reference value :  5.04076e-06
 Reference value :  5.04308e-06
 Reference value :  5.04527e-06
 Reference value :  5.04808e-06
 Reference value :  5.05292e-06
 Reference value :  5.05996e-06
 Reference value :  5.07011e-06
 Reference value :  5.08440e-06
 Reference value :  5.10138e-06
 Reference value :  5.11825e-06
 Reference value :  5.14423e-06
 Reference value :  5.19451e-06
 Reference value :  5.25010e-06
 Reference value :  5.25011e-06
 Reference value :  5.25013e-06
 Reference value :  5.25017e-06
 Reference value :  5.25020e-06
 Reference value :  5.25020e-06
 Reference value :  5.25020e-06
 Reference value :  5.25021e-06
 Reference value :  5.25021e-06
 Reference value :  5.25022e-06
 Reference value :  5.25025e-06
 Reference value :  5.25030e-06
 Reference value :  5.25040e-06
 Reference value :  5.25059e-06
 Reference value :  5.25094e-06
 Reference value :  5.25154e-06
 Reference value :  5.25217e-06
 Reference value :  5.25294e-06
 Reference value :  5.25376e-06
 Reference value :  5.25482e-06
 Reference value :  5.25578e-06
 Reference value :  5.25688e-06
 Reference value :  5.25797e-06
 Reference value :  5.25905e-06
 Reference value :  5.26083e-06
 Reference value :  5.26259e-06
 Reference value :  5.26540e-06
 Reference value :  5.26895e-06
 Reference value :  5.27425e-06
 Reference value :  5.28484e-06
 Reference value :  5.30323e-06
 Reference value :  5.33670e-06
 Reference value :  5.40365e-06
 Reference value :  5.50000e-06
 Reference value :  5.50001e-06
 Reference value :  5.50003e-06
 Reference value :  5.50007e-06
 Reference value :  5.50010e-06
 Reference value :  5.50010e-06
 Reference value :  5.50011e-06
 Reference value :  5.50013e-06
 Reference value :  5.50016e-06
 Reference value :  5.50023e-06
 Reference value :  5.50037e-06
 Reference value :  5.50056e-06
 Reference value :  5.50093e-06
 Reference value :  5.50161e-06
 Reference value :  5.50223e-06
 Reference value :  5.50291e-06
 Reference value :  5.50363e-06
 Reference value :  5.50438e-06
 Reference value :  5.50523e-06
 Reference value :  5.50615e-06
 Reference value :  5.50718e-06
 Reference value :  5.50852e-06
 Reference value :  5.50990e-06
 Reference value :  5.51134e-06
 Reference value :  5.51291e-06
 Reference value :  5.51459e-06
 Reference value :  5.51617e-06
 Reference value :  5.51781e-06
 Reference value :  5.51961e-06
 Reference value :  5.52165e-06
 Reference value :  5.52529e-06
 Reference value :  5.53067e-06
 Reference value :  5.54106e-06
 Reference value :  5.56063e-06
 Reference value :  5.59755e-06
 Reference value :  5.67137e-06
 Reference value :  5.75010e-06
 Reference value :  5.75011e-06
 Reference value :  5.75013e-06
 Reference value :  5.75017e-06
 Reference value :  5.75020e-06
 Reference value :  5.75020e-06
 Reference value :  5.75020e-06
 Reference value :  5.75021e-06
 Reference value :  5.75021e-06
 Reference value :  5.75022e-06
 Reference value :  5.75025e-06
 Reference value :  5.75030e-06
 Reference value :  5.75039e-06
 Reference value :  5.75059e-06
 Reference value :  5.75093e-06
 Reference value :  5.75154e-06
 Reference value :  5.75216e-06
 Reference value :  5.75294e-06
 Reference value :  5.75375e-06
 Reference value :  5.75481e-06
 Reference value :  5.75575e-06
 Reference value :  5.75683e-06
 Reference value :  5.75778e-06
 Reference value :  5.75878e-06
 Reference value :  5.75992e-06
 Reference value :  5.76120e-06
 Reference value :  5.76375e-06
 Reference value :  5.76658e-06
 Reference value :  5.77112e-06
 Reference value :  5.77730e-06
 Reference value :  5.78965e-06
 Reference value :  5.81437e-06
 Reference value :  5.86379e-06
 Reference value :  5.96264e-06
 Reference value :  6.00000e-06
 Reference value :  6.00001e-06
 Reference value :  6.00003e-06
 Reference value :  6.00007e-06
 Reference value :  6.00010e-06
 Reference value :  6.00010e-06
 Reference value :  6.00011e-06
 Reference value :  6.00013e-06
 Reference value :  6.00016e-06
 Reference value :  6.00023e-06
 Reference value :  6.00037e-06
 Reference value :  6.00055e-06
 Reference value :  6.00092e-06
 Reference value :  6.00160e-06
 Reference value :  6.00223e-06
 Reference value :  6.00291e-06
 Reference value :  6.00363e-06
 Reference value :  6.00439e-06
 Reference value :  6.00524e-06
 Reference value :  6.00615e-06
 Reference value :  6.00710e-06
 Reference value :  6.00813e-06
 Reference value :  6.00897e-06
 Reference value :  6.00997e-06
 Reference value :  6.01099e-06
 Reference value :  6.01228e-06
 Reference value :  6.01424e-06
 Reference value :  6.01725e-06
 Reference value :  6.02029e-06
 Reference value :  6.02269e-06
 Reference value :  6.02473e-06
 Reference value :  6.02668e-06
 Reference value :  6.02869e-06
 Reference value :  6.03069e-06
 Reference value :  6.03291e-06
 Reference value :  6.03520e-06
 Reference value :  6.03858e-06
 Reference value :  6.04298e-06
 Reference value :  6.04890e-06
 Reference value :  6.05645e-06
 Reference value :  6.06386e-06
 Reference value :  6.06938e-06
 Reference value :  6.07496e-06
 Reference value :  6.08076e-06
 Reference value :  6.08726e-06
 Reference value :  6.09564e-06
 Reference value :  6.10299e-06
 Reference value :  6.11110e-06
 Reference value :  6.12732e-06
 Reference value :  6.14415e-06
 Reference value :  6.17308e-06
 Reference value :  6.21510e-06
 Reference value :  6.25010e-06
 Reference value :  6.25011e-06
 Reference value :  6.25013e-06
 Reference value :  6.25017e-06
 Reference value :  6.25020e-06
 Reference value :  6.25020e-06
 Reference value :  6.25020e-06
 Reference value :  6.25021e-06
 Reference value :  6.25021e-06
 Reference value :  6.25022e-06
 Reference value :  6.25025e-06
 Reference value :  6.25030e-06
 Reference value :  6.25039e-06
 Reference value :  6.25059e-06
 Reference value :  6.25092e-06
 Reference value :  6.25154e-06
 Reference value :  6.25216e-06
 Reference value :  6.25294e-06
 Reference value :  6.25375e-06
 Reference value :  6.25481e-06
 Reference value :  6.25570e-06
 Reference value :  6.25673e-06
 Reference value :  6.25771e-06
 Reference value :  6.25874e-06
 Reference value :  6.26045e-06
 Reference value :  6.26206e-06
 Reference value :  6.26491e-06
 Reference value :  6.26803e-06
 Reference value :  6.27308e-06
 Reference value :  6.28245e-06
 Reference value :  6.30120e-06
 Reference value :  6.32577e-06
 Reference value :  6.35445e-06
 Reference value :  6.37199e-06
 Reference value :  6.39144e-06
 Reference value :  6.41199e-06
 Reference value :  6.43402e-06
 Reference value :  6.45874e-06
 Reference value :  6.50000e-06
 Reference value :  6.50001e-06
 Reference value :  6.50003e-06
 Reference value :  6.50007e-06
 Reference value :  6.50010e-06
 Reference value :  6.50010e-06
 Reference value :  6.50011e-06
 Reference value :  6.50013e-06
 Reference value :  6.50016e-06
 Reference value :  6.50023e-06
 Reference value :  6.50037e-06
 Reference value :  6.50055e-06
 Reference value :  6.50092e-06
 Reference value :  6.50160e-06
 Reference value :  6.50223e-06
 Reference value :  6.50291e-06
 Reference value :  6.50363e-06
 Reference value :  6.50438e-06
 Reference value :  6.50524e-06
 Reference value :  6.50615e-06
 Reference value :  6.50712e-06
 Reference value :  6.50848e-06
 Reference value :  6.50979e-06
 Reference value :  6.51143e-06
 Reference value :  6.51292e-06
 Reference value :  6.51447e-06
 Reference value :  6.51591e-06
 Reference value :  6.51750e-06
 Reference value :  6.51917e-06
 Reference value :  6.52107e-06
 Reference value :  6.52488e-06
 Reference value :  6.53051e-06
 Reference value :  6.54176e-06
 Reference value :  6.56427e-06
 Reference value :  6.60929e-06
 Reference value :  6.69933e-06
 Reference value :  6.75010e-06
 Reference value :  6.75011e-06
 Reference value :  6.75013e-06
 Reference value :  6.75017e-06
 Reference value :  6.75020e-06
 Reference value :  6.75020e-06
 Reference value :  6.75020e-06
 Reference value :  6.75021e-06
 Reference value :  6.75021e-06
 Reference value :  6.75022e-06
 Reference value :  6.75025e-06
 Reference value :  6.75030e-06
 Reference value :  6.75039e-06
 Reference value :  6.75059e-06
 Reference value :  6.75093e-06
 Reference value :  6.75154e-06
 Reference value :  6.75216e-06
 Reference value :  6.75294e-06
 Reference value :  6.75375e-06
 Reference value :  6.75481e-06
 Reference value :  6.75574e-06
 Reference value :  6.75681e-06
 Reference value :  6.75776e-06
 Reference value :  6.75875e-06
 Reference value :  6.75989e-06
 Reference value :  6.76116e-06
 Reference value :  6.76370e-06
 Reference value :  6.76650e-06
 Reference value :  6.77101e-06
 Reference value :  6.77707e-06
 Reference value :  6.78918e-06
 Reference value :  6.81341e-06
 Reference value :  6.86186e-06
 Reference value :  6.95877e-06
 Reference value :  7.00000e-06
 Reference value :  7.00001e-06
 Reference value :  7.00003e-06
 Reference value :  7.00007e-06
 Reference value :  7.00010e-06
 Reference value :  7.00010e-06
 Reference value :  7.00011e-06
 Reference value :  7.00013e-06
 Reference value :  7.00016e-06
 Reference value :  7.00023e-06
 Reference value :  7.00037e-06
 Reference value :  7.00055e-06
 Reference value :  7.00092e-06
 Reference value :  7.00160e-06
 Reference value :  7.00223e-06
 Reference value :  7.00291e-06
 Reference value :  7.00363e-06
 Reference value :  7.00439e-06
 Reference value :  7.00523e-06
 Reference value :  7.00615e-06
 Reference value :  7.00717e-06
 Reference value :  7.00818e-06
 Reference value :  7.00904e-06
 Reference value :  7.01006e-06
 Reference value :  7.01108e-06
 Reference value :  7.01240e-06
 Reference value :  7.01436e-06
 Reference value :  7.01723e-06
 Reference value :  7.02046e-06
 Reference value :  7.02288e-06
 Reference value :  7.02508e-06
 Reference value :  7.02725e-06
 Reference value :  7.02925e-06
 Reference value :  7.03144e-06
 Reference value :  7.03381e-06
 Reference value :  7.03638e-06
 Reference value :  7.03932e-06
 Reference value :  7.04387e-06
 Reference value :  7.04869e-06
 Reference value :  7.05460e-06
 Reference value :  7.06071e-06
 Reference value :  7.06574e-06
 Reference value :  7.07102e-06
 Reference value :  7.07760e-06
 Reference value :  7.08624e-06
 Reference value :  7.09322e-06
 Reference value :  7.10211e-06
 Reference value :  7.11216e-06
 Reference value :  7.12955e-06
 Reference value :  7.15666e-06
 Reference value :  7.20124e-06
 Reference value :  7.25010e-06
 Reference value :  7.25011e-06
 Reference value :  7.25013e-06
 Reference value :  7.25017e-06
 Reference value :  7.25020e-06
 Reference value :  7.25020e-06
 Reference value :  7.25020e-06
 Reference value :  7.25021e-06
 Reference value :  7.25021e-06
 Reference value :  7.25022e-06
 Reference value :  7.25025e-06
 Reference value :  7.25030e-06
 Reference value :  7.25040e-06
 Reference value :  7.25059e-06
 Reference value :  7.25094e-06
 Reference value :  7.25154e-06
 Reference value :  7.25219e-06
 Reference value :  7.25294e-06
 Reference value :  7.25377e-06
 Reference value :  7.25483e-06
 Reference value :  7.25568e-06
 Reference value :  7.25668e-06
 Reference value :  7.25762e-06
 Reference value :  7.25862e-06
 Reference value :  7.26030e-06
 Reference value :  7.26186e-06
 Reference value :  7.26467e-06
 Reference value :  7.26766e-06
 Reference value :  7.27266e-06
 Reference value :  7.28085e-06
 Reference value :  7.29725e-06
 Reference value :  7.33004e-06
 Reference value :  7.39562e-06
 Reference value :  7.50000e-06
 Reference value :  7.50001e-06
 Reference value :  7.50003e-06
 Reference value :  7.50007e-06
 Reference value :  7.50010e-06
 Reference value :  7.50010e-06
 Reference value :  7.50011e-06
 Reference value :  7.50013e-06
 Reference value :  7.50016e-06
 Reference value :  7.50023e-06
 Reference value :  7.50037e-06
 Reference value :  7.50056e-06
 Reference value :  7.50093e-06
 Reference value :  7.50152e-06
 Reference value :  7.50214e-06
 Reference value :  7.50278e-06
 Reference value :  7.50356e-06
 Reference value :  7.50429e-06
 Reference value :  7.50514e-06
 Reference value :  7.50604e-06
 Reference value :  7.50709e-06
 Reference value :  7.50845e-06
 Reference value :  7.50982e-06
 Reference value :  7.51142e-06
 Reference value :  7.51279e-06
 Reference value :  7.51425e-06
 Reference value :  7.51568e-06
 Reference value :  7.51738e-06
 Reference value :  7.51916e-06
 Reference value :  7.52103e-06
 Reference value :  7.52478e-06
 Reference value :  7.53226e-06
 Reference value :  7.54516e-06
 Reference value :  7.57096e-06
 Reference value :  7.62255e-06
 Reference value :  7.72574e-06
 Reference value :  7.75010e-06
 Reference value :  7.75011e-06
 Reference value :  7.75013e-06
 Reference value :  7.75017e-06
 Reference value :  7.75020e-06
 Reference value :  7.75020e-06
 Reference value :  7.75020e-06
 Reference value :  7.75021e-06
 Reference value :  7.75021e-06
 Reference value :  7.75022e-06
 Reference value :  7.75025e-06
 Reference value :  7.75030e-06
 Reference value :  7.75039e-06
 Reference value :  7.75059e-06
 Reference value :  7.75093e-06
 Reference value :  7.75154e-06
 Reference value :  7.75217e-06
 Reference value :  7.75294e-06
 Reference value :  7.75375e-06
 Reference value :  7.75482e-06
 Reference value :  7.75571e-06
 Reference value :  7.75676e-06
 Reference value :  7.75767e-06
 Reference value :  7.75865e-06
 Reference value :  7.75977e-06
 Reference value :  7.76103e-06
 Reference value :  7.76230e-06
 Reference value :  7.76411e-06
 Reference value :  7.76619e-06
 Reference value :  7.76894e-06
 Reference value :  7.77245e-06
 Reference value :  7.77745e-06
 Reference value :  7.78746e-06
 Reference value :  7.80249e-06
 Reference value :  7.83254e-06
 Reference value :  7.89264e-06
 Reference value :  8.00000e-06
 Reference value :  8.00001e-06
 Reference value :  8.00003e-06
 Reference value :  8.00007e-06
 Reference value :  8.00010e-06
 Reference value :  8.00010e-06
 Reference value :  8.00011e-06
 Reference value :  8.00013e-06
 Reference value :  8.00016e-06
 Reference value :  8.00023e-06
 Reference value :  8.00037e-06
 Reference value :  8.00055e-06
 Reference value :  8.00092e-06
 Reference value :  8.00151e-06
 Reference value :  8.00214e-06
 Reference value :  8.00283e-06
 Reference value :  8.00356e-06
 Reference value :  8.00432e-06
 Reference value :  8.00516e-06
 Reference value :  8.00606e-06
 Reference value :  8.00699e-06
 Reference value :  8.00784e-06
 Reference value :  8.00873e-06
 Reference value :  8.00970e-06
 Reference value :  8.01068e-06
 Reference value :  8.01209e-06
 Reference value :  8.01357e-06
 Reference value :  8.01570e-06
 Reference value :  8.01723e-06
 Reference value :  8.01888e-06
 Reference value :  8.02086e-06
 Reference value :  8.02292e-06
 Reference value :  8.02526e-06
 Reference value :  8.02783e-06
 Reference value :  8.03156e-06
 Reference value :  8.03498e-06
 Reference value :  8.04001e-06
 Reference value :  8.04508e-06
 Reference value :  8.05099e-06
 Reference value :  8.05728e-06
 Reference value :  8.06340e-06
 Reference value :  8.06919e-06
 Reference value :  8.07567e-06
 Reference value :  8.08270e-06
 Reference value :  8.09121e-06
 Reference value :  8.10822e-06
 Reference value :  8.13681e-06
 Reference value :  8.18618e-06
 Reference value :  8.25010e-06
 Reference value :  8.25011e-06
 Reference value :  8.25013e-06
 Reference value :  8.25017e-06
 Reference value :  8.25020e-06
 Reference value :  8.25020e-06
 Reference value :  8.25020e-06
 Reference value :  8.25021e-06
 Reference value :  8.25021e-06
 Reference value :  8.25022e-06
 Reference value :  8.25025e-06
 Reference value :  8.25030e-06
 Reference value :  8.25039e-06
 Reference value :  8.25059e-06
 Reference value :  8.25097e-06
 Reference value :  8.25154e-06
 Reference value :  8.25221e-06
 Reference value :  8.25295e-06
 Reference value :  8.25379e-06
 Reference value :  8.25485e-06
 Reference value :  8.25616e-06
 Reference value :  8.25753e-06
 Reference value :  8.25911e-06
 Reference value :  8.26083e-06
 Reference value :  8.26340e-06
 Reference value :  8.26637e-06
 Reference value :  8.27042e-06
 Reference value :  8.27625e-06
 Reference value :  8.28792e-06
 Reference value :  8.31125e-06
 Reference value :  8.35751e-06
 Reference value :  8.45002e-06
 Reference value :  8.50000e-06
 Reference value :  8.50001e-06
 Reference value :  8.50003e-06
 Reference value :  8.50007e-06
 Reference value :  8.50010e-06
 Reference value :  8.50010e-06
 Reference value :  8.50011e-06
 Reference value :  8.50013e-06
 Reference value :  8.50016e-06
 Reference value :  8.50023e-06
 Reference value :  8.50037e-06
 Reference value :  8.50064e-06
 Reference value :  8.50111e-06
 Reference value :  8.50187e-06
 Reference value :  8.50271e-06
 Reference value :  8.50338e-06
 Reference value :  8.50424e-06
 Reference value :  8.50514e-06
 Reference value :  8.50606e-06
 Reference value :  8.50708e-06
 Reference value :  8.50859e-06
 Reference value :  8.51017e-06
 Reference value :  8.51269e-06
 Reference value :  8.51434e-06
 Reference value :  8.51623e-06
 Reference value :  8.51914e-06
 Reference value :  8.52188e-06
 Reference value :  8.52525e-06
 Reference value :  8.53198e-06
 Reference value :  8.53866e-06
 Reference value :  8.54353e-06
 Reference value :  8.54748e-06
 Reference value :  8.55112e-06
 Reference value :  8.55428e-06
 Reference value :  8.55699e-06
 Reference value :  8.55967e-06
 Reference value :  8.56232e-06
 Reference value :  8.56508e-06
 Reference value :  8.56899e-06
 Reference value :  8.57356e-06
 Reference value :  8.57859e-06
 Reference value :  8.58496e-06
 Reference value :  8.59414e-06
 Reference value :  8.60500e-06
 Reference value :  8.62247e-06
 Reference value :  8.64061e-06
 Reference value :  8.66093e-06
 Reference value :  8.68277e-06
 Reference value :  8.71362e-06
 Reference value :  8.75010e-06
 Reference value :  8.75011e-06
 Reference value :  8.75013e-06
 Reference value :  8.75017e-06
 Reference value :  8.75020e-06
 Reference value :  8.75020e-06
 Reference value :  8.75020e-06
 Reference value :  8.75021e-06
 Reference value :  8.75021e-06
 Reference value :  8.75022e-06
 Reference value :  8.75025e-06
 Reference value :  8.75030e-06
 Reference value :  8.75040e-06
 Reference value :  8.75059e-06
 Reference value :  8.75098e-06
 Reference value :  8.75155e-06
 Reference value :  8.75223e-06
 Reference value :  8.75299e-06
 Reference value :  8.75380e-06
 Reference value :  8.75492e-06
 Reference value :  8.75586e-06
 Reference value :  8.75692e-06
 Reference value :  8.75792e-06
 Reference value :  8.75896e-06
 Reference value :  8.76063e-06
 Reference value :  8.76233e-06
 Reference value :  8.76503e-06
 Reference value :  8.76847e-06
 Reference value :  8.77348e-06
 Reference value :  8.78351e-06
 Reference value :  8.80082e-06
 Reference value :  8.83192e-06
 Reference value :  8.89393e-06
 Reference value :  8.96765e-06
 Reference value :  9.00000e-06
 Reference value :  9.00001e-06
 Reference value :  9.00003e-06
 Reference value :  9.00007e-06
 Reference value :  9.00010e-06
 Reference value :  9.00010e-06
 Reference value :  9.00011e-06
 Reference value :  9.00013e-06
 Reference value :  9.00016e-06
 Reference value :  9.00023e-06
 Reference value :  9.00037e-06
 Reference value :  9.00056e-06
 Reference value :  9.00094e-06
 Reference value :  9.00153e-06
 Reference value :  9.00216e-06
 Reference value :  9.00286e-06
 Reference value :  9.00368e-06
 Reference value :  9.00443e-06
 Reference value :  9.00531e-06
 Reference value :  9.00625e-06
 Reference value :  9.00722e-06
 Reference value :  9.00866e-06
 Reference value :  9.01003e-06
 Reference value :  9.01255e-06
 Reference value :  9.01560e-06
 Reference value :  9.01778e-06
 Reference value :  9.02027e-06
 Reference value :  9.02271e-06
 Reference value :  9.02528e-06
 Reference value :  9.02840e-06
 Reference value :  9.03324e-06
 Reference value :  9.03998e-06
 Reference value :  9.04970e-06
 Reference value :  9.06914e-06
 Reference value :  9.09726e-06
 Reference value :  9.14896e-06
 Reference value :  9.24915e-06
 Reference value :  9.25010e-06
 Reference value :  9.25011e-06
 Reference value :  9.25013e-06
 Reference value :  9.25017e-06
 Reference value :  9.25020e-06
 Reference value :  9.25020e-06
 Reference value :  9.25020e-06
 Reference value :  9.25021e-06
 Reference value :  9.25021e-06
 Reference value :  9.25022e-06
 Reference value :  9.25025e-06
 Reference value :  9.25030e-06
 Reference value :  9.25040e-06
 Reference value :  9.25059e-06
 Reference value :  9.25098e-06
 Reference value :  9.25157e-06
 Reference value :  9.25224e-06
 Reference value :  9.25299e-06
 Reference value :  9.25383e-06
 Reference value :  9.25492e-06
 Reference value :  9.25581e-06
 Reference value :  9.25686e-06
 Reference value :  9.25777e-06
 Reference value :  9.25874e-06
 Reference value :  9.25991e-06
 Reference value :  9.26119e-06
 Reference value :  9.26376e-06
 Reference value :  9.26656e-06
 Reference value :  9.27108e-06
 Reference value :  9.27714e-06
 Reference value :  9.28926e-06
 Reference value :  9.31350e-06
 Reference value :  9.36197e-06
 Reference value :  9.45892e-06
 Reference value :  9.50000e-06
 Reference value :  9.50001e-06
 Reference value :  9.50003e-06
 Reference value :  9.50007e-06
 Reference value :  9.50010e-06
 Reference value :  9.50010e-06
 Reference value :  9.50011e-06
 Reference value :  9.50013e-06
 Reference value :  9.50016e-06
 Reference value :  9.50023e-06
 Reference value :  9.50037e-06
 Reference value :  9.50056e-06
 Reference value :  9.50094e-06
 Reference value :  9.50153e-06
 Reference value :  9.50216e-06
 Reference value :  9.50285e-06
 Reference value :  9.50357e-06
 Reference value :  9.50432e-06
 Reference value :  9.50516e-06
 Reference value :  9.50607e-06
 Reference value :  9.50702e-06
 Reference value :  9.50795e-06
 Reference value :  9.50904e-06
 Reference value :  9.51001e-06
 Reference value :  9.51108e-06
 Reference value :  9.51259e-06
 Reference value :  9.51428e-06
 Reference value :  9.51717e-06
 Reference value :  9.52014e-06
 Reference value :  9.52249e-06
 Reference value :  9.52475e-06
 Reference value :  9.52635e-06
 Reference value :  9.52795e-06
 Reference value :  9.52955e-06
 Reference value :  9.53121e-06
 Reference value :  9.53299e-06
 Reference value :  9.53545e-06
 Reference value :  9.53815e-06
 Reference value :  9.54283e-06
 Reference value :  9.54933e-06
 Reference value :  9.55923e-06
 Reference value :  9.57607e-06
 Reference value :  9.60461e-06
 Reference value :  9.64324e-06
 Reference value :  9.72049e-06
 Reference value :  9.75010e-06
 Reference value :  9.75011e-06
 Reference value :  9.75013e-06
 Reference value :  9.75017e-06
 Reference value :  9.75020e-06
 Reference value :  9.75020e-06
 Reference value :  9.75020e-06
 Reference value :  9.75021e-06
 Reference value :  9.75021e-06
 Reference value :  9.75022e-06
 Reference value :  9.75025e-06
 Reference value :  9.75030e-06
 Reference value :  9.75040e-06
 Reference value :  9.75059e-06
 Reference value :  9.75094e-06
 Reference value :  9.75156e-06
 Reference value :  9.75219e-06
 Reference value :  9.75296e-06
 Reference value :  9.75378e-06
 Reference value :  9.75486e-06
 Reference value :  9.75579e-06
 Reference value :  9.75686e-06
 Reference value :  9.75800e-06
 Reference value :  9.75905e-06
 Reference value :  9.76085e-06
 Reference value :  9.76257e-06
 Reference value :  9.76539e-06
 Reference value :  9.76892e-06
 Reference value :  9.77424e-06
 Reference value :  9.78488e-06
 Reference value :  9.80292e-06
 Reference value :  9.83598e-06
 Reference value :  9.90210e-06
 Reference value :  1.00000e-05
 Reference value :  1.00000e-05
 Reference value :  1.00000e-05
 Reference value :  1.00001e-05
 Reference value :  1.00001e-05
 Reference value :  1.00001e-05
 Reference value :  1.00001e-05
 Reference value :  1.00001e-05
 Reference value :  1.00002e-05
 Reference value :  1.00002e-05
 Reference value :  1.00004e-05
 Reference value :  1.00006e-05
 Reference value :  1.00009e-05
 Reference value :  1.00016e-05
 Reference value :  1.00022e-05
 Reference value :  1.00029e-05
 Reference value :  1.00036e-05
 Reference value :  1.00044e-05
 Reference value :  1.00052e-05
 Reference value :  1.00062e-05
 Reference value :  1.00072e-05
 Reference value :  1.00085e-05
 Reference value :  1.00099e-05
 Reference value :  1.00115e-05
 Reference value :  1.00130e-05
 Reference value :  1.00146e-05
 Reference value :  1.00166e-05
 Reference value :  1.00185e-05
 Reference value :  1.00208e-05
 Reference value :  1.00229e-05
 Reference value :  1.00273e-05
 Reference value :  1.00358e-05
 Reference value :  1.00491e-05
 Reference value :  1.00756e-05
 Reference value :  1.01286e-05
 Reference value :  1.02345e-05
 Reference value :  1.02501e-05
 Reference value :  1.02501e-05
 Reference value :  1.02501e-05
 Reference value :  1.02502e-05
 Reference value :  1.02502e-05
 Reference value :  1.02502e-05
 Reference value :  1.02502e-05
 Reference value :  1.02502e-05
 Reference value :  1.02502e-05
 Reference value :  1.02502e-05
 Reference value :  1.02502e-05
 Reference value :  1.02503e-05
 Reference value :  1.02504e-05
 Reference value :  1.02506e-05
 Reference value :  1.02509e-05
 Reference value :  1.02515e-05
 Reference value :  1.02522e-05
 Reference value :  1.02529e-05
 Reference value :  1.02538e-05
 Reference value :  1.02548e-05
 Reference value :  1.02558e-05
 Reference value :  1.02568e-05
 Reference value :  1.02578e-05
 Reference value :  1.02587e-05
 Reference value :  1.02599e-05
 Reference value :  1.02612e-05
 Reference value :  1.02637e-05
 Reference value :  1.02665e-05
 Reference value :  1.02710e-05
 Reference value :  1.02771e-05
 Reference value :  1.02892e-05
 Reference value :  1.03134e-05
 Reference value :  1.03618e-05
 Reference value :  1.04586e-05
 Reference value :  1.05000e-05
 Reference value :  1.05000e-05
 Reference value :  1.05000e-05
 Reference value :  1.05001e-05
 Reference value :  1.05001e-05
 Reference value :  1.05001e-05
 Reference value :  1.05001e-05
 Reference value :  1.05001e-05
 Reference value :  1.05002e-05
 Reference value :  1.05002e-05
 Reference value :  1.05004e-05
 Reference value :  1.05006e-05
 Reference value :  1.05009e-05
 Reference value :  1.05016e-05
 Reference value :  1.05022e-05
 Reference value :  1.05029e-05
 Reference value :  1.05036e-05
 Reference value :  1.05044e-05
 Reference value :  1.05052e-05
 Reference value :  1.05061e-05
 Reference value :  1.05072e-05
 Reference value :  1.05082e-05
 Reference value :  1.05092e-05
 Reference value :  1.05103e-05
 Reference value :  1.05113e-05
 Reference value :  1.05128e-05
 Reference value :  1.05146e-05
 Reference value :  1.05176e-05
 Reference value :  1.05204e-05
 Reference value :  1.05228e-05
 Reference value :  1.05249e-05
 Reference value :  1.05269e-05
 Reference value :  1.05289e-05
 Reference value :  1.05310e-05
 Reference value :  1.05334e-05
 Reference value :  1.05358e-05
 Reference value :  1.05388e-05
 Reference value :  1.05432e-05
 Reference value :  1.05494e-05
 Reference value :  1.05594e-05
 Reference value :  1.05698e-05
 Reference value :  1.05818e-05
 Reference value :  1.05949e-05
 Reference value :  1.06040e-05
 Reference value :  1.06127e-05
 Reference value :  1.06201e-05
 Reference value :  1.06270e-05
 Reference value :  1.06344e-05
 Reference value :  1.06423e-05
 Reference value :  1.06576e-05
 Reference value :  1.06740e-05
 Reference value :  1.07011e-05
 Reference value :  1.07419e-05
 Reference value :  1.07501e-05
 Reference value :  1.07501e-05
 Reference value :  1.07501e-05
 Reference value :  1.07502e-05
 Reference value :  1.07502e-05
 Reference value :  1.07502e-05
 Reference value :  1.07502e-05
 Reference value :  1.07502e-05
 Reference value :  1.07502e-05
 Reference value :  1.07502e-05
 Reference value :  1.07502e-05
 Reference value :  1.07503e-05
 Reference value :  1.07504e-05
 Reference value :  1.07506e-05
 Reference value :  1.07509e-05
 Reference value :  1.07515e-05
 Reference value :  1.07522e-05
 Reference value :  1.07530e-05
 Reference value :  1.07538e-05
 Reference value :  1.07548e-05
 Reference value :  1.07557e-05
 Reference value :  1.07567e-05
 Reference value :  1.07577e-05
 Reference value :  1.07587e-05
 Reference value :  1.07604e-05
 Reference value :  1.07620e-05
 Reference value :  1.07648e-05
 Reference value :  1.07679e-05
 Reference value :  1.07729e-05
 Reference value :  1.07819e-05
 Reference value :  1.07999e-05
 Reference value :  1.08358e-05
 Reference value :  1.09076e-05
 Reference value :  1.09944e-05
 Reference value :  1.10000e-05
 Reference value :  1.10000e-05
 Reference value :  1.10000e-05
 Reference value :  1.10001e-05
 Reference value :  1.10001e-05
 Reference value :  1.10001e-05
 Reference value :  1.10001e-05
 Reference value :  1.10001e-05
 Reference value :  1.10002e-05
 Reference value :  1.10002e-05
 Reference value :  1.10004e-05
 Reference value :  1.10006e-05
 Reference value :  1.10009e-05
 Reference value :  1.10016e-05
 Reference value :  1.10022e-05
 Reference value :  1.10029e-05
 Reference value :  1.10036e-05
 Reference value :  1.10043e-05
 Reference value :  1.10052e-05
 Reference value :  1.10061e-05
 Reference value :  1.10071e-05
 Reference value :  1.10085e-05
 Reference value :  1.10098e-05
 Reference value :  1.10114e-05
 Reference value :  1.10128e-05
 Reference value :  1.10143e-05
 Reference value :  1.10163e-05
 Reference value :  1.10182e-05
 Reference value :  1.10203e-05
 Reference value :  1.10231e-05
 Reference value :  1.10264e-05
 Reference value :  1.10320e-05
 Reference value :  1.10404e-05
 Reference value :  1.10545e-05
 Reference value :  1.10788e-05
 Reference value :  1.11200e-05
 Reference value :  1.11962e-05
 Reference value :  1.12501e-05
 Reference value :  1.12501e-05
 Reference value :  1.12501e-05
 Reference value :  1.12502e-05
 Reference value :  1.12502e-05
 Reference value :  1.12502e-05
 Reference value :  1.12502e-05
 Reference value :  1.12502e-05
 Reference value :  1.12502e-05
 Reference value :  1.12502e-05
 Reference value :  1.12502e-05
 Reference value :  1.12503e-05
 Reference value :  1.12504e-05
 Reference value :  1.12506e-05
 Reference value :  1.12509e-05
 Reference value :  1.12515e-05
 Reference value :  1.12522e-05
 Reference value :  1.12529e-05
 Reference value :  1.12538e-05
 Reference value :  1.12548e-05
 Reference value :  1.12558e-05
 Reference value :  1.12568e-05
 Reference value :  1.12578e-05
 Reference value :  1.12587e-05
 Reference value :  1.12599e-05
 Reference value :  1.12611e-05
 Reference value :  1.12625e-05
 Reference value :  1.12642e-05
 Reference value :  1.12665e-05
 Reference value :  1.12693e-05
 Reference value :  1.12730e-05
 Reference value :  1.12782e-05
 Reference value :  1.12885e-05
 Reference value :  1.13074e-05
 Reference value :  1.13450e-05
 Reference value :  1.14204e-05
 Reference value :  1.15000e-05
 Reference value :  1.15000e-05
 Reference value :  1.15000e-05
 Reference value :  1.15001e-05
 Reference value :  1.15001e-05
 Reference value :  1.15001e-05
 Reference value :  1.15001e-05
 Reference value :  1.15001e-05
 Reference value :  1.15002e-05
 Reference value :  1.15002e-05
 Reference value :  1.15004e-05
 Reference value :  1.15006e-05
 Reference value :  1.15009e-05
 Reference value :  1.15016e-05
 Reference value :  1.15022e-05
 Reference value :  1.15029e-05
 Reference value :  1.15036e-05
 Reference value :  1.15044e-05
 Reference value :  1.15052e-05
 Reference value :  1.15061e-05
 Reference value :  1.15071e-05
 Reference value :  1.15079e-05
 Reference value :  1.15088e-05
 Reference value :  1.15098e-05
 Reference value :  1.15108e-05
 Reference value :  1.15121e-05
 Reference value :  1.15135e-05
 Reference value :  1.15157e-05
 Reference value :  1.15172e-05
 Reference value :  1.15189e-05
 Reference value :  1.15205e-05
 Reference value :  1.15223e-05
 Reference value :  1.15240e-05
 Reference value :  1.15255e-05
 Reference value :  1.15272e-05
 Reference value :  1.15287e-05
 Reference value :  1.15303e-05
 Reference value :  1.15321e-05
 Reference value :  1.15343e-05
 Reference value :  1.15369e-05
 Reference value :  1.15409e-05
 Reference value :  1.15475e-05
 Reference value :  1.15574e-05
 Reference value :  1.15676e-05
 Reference value :  1.15791e-05
 Reference value :  1.15867e-05
 Reference value :  1.15941e-05
 Reference value :  1.16020e-05
 Reference value :  1.16101e-05
 Reference value :  1.16208e-05
 Reference value :  1.16324e-05
 Reference value :  1.16471e-05
 Reference value :  1.16651e-05
 Reference value :  1.16873e-05
 Reference value :  1.17157e-05
 Reference value :  1.17501e-05
 Reference value :  1.17501e-05
 Reference value :  1.17501e-05
 Reference value :  1.17502e-05
 Reference value :  1.17502e-05
 Reference value :  1.17502e-05
 Reference value :  1.17502e-05
 Reference value :  1.17502e-05
 Reference value :  1.17502e-05
 Reference value :  1.17502e-05
 Reference value :  1.17502e-05
 Reference value :  1.17503e-05
 Reference value :  1.17504e-05
 Reference value :  1.17506e-05
 Reference value :  1.17509e-05
 Reference value :  1.17515e-05
 Reference value :  1.17522e-05
 Reference value :  1.17529e-05
 Reference value :  1.17538e-05
 Reference value :  1.17548e-05
 Reference value :  1.17558e-05
 Reference value :  1.17569e-05
 Reference value :  1.17580e-05
 Reference value :  1.17590e-05
 Reference value :  1.17608e-05
 Reference value :  1.17626e-05
 Reference value :  1.17654e-05
 Reference value :  1.17689e-05
 Reference value :  1.17742e-05
 Reference value :  1.17848e-05
 Reference value :  1.18030e-05
 Reference value :  1.18362e-05
 Reference value :  1.19025e-05
 Reference value :  1.20000e-05
 Reference value :  1.20000e-05
 Reference value :  1.20000e-05
 Reference value :  1.20001e-05
 Reference value :  1.20001e-05
 Reference value :  1.20001e-05
 Reference value :  1.20001e-05
 Reference value :  1.20001e-05
 Reference value :  1.20002e-05
 Reference value :  1.20002e-05
 Reference value :  1.20004e-05
 Reference value :  1.20006e-05
 Reference value :  1.20009e-05
 Reference value :  1.20016e-05
 Reference value :  1.20022e-05
 Reference value :  1.20029e-05
 Reference value :  1.20036e-05
 Reference value :  1.20044e-05
 Reference value :  1.20052e-05
 Reference value :  1.20062e-05
 Reference value :  1.20071e-05
 Reference value :  1.20085e-05
 Reference value :  1.20098e-05
 Reference value :  1.20114e-05
 Reference value :  1.20129e-05
 Reference value :  1.20144e-05
 Reference value :  1.20160e-05
 Reference value :  1.20177e-05
 Reference value :  1.20194e-05
 Reference value :  1.20214e-05
 Reference value :  1.20252e-05
 Reference value :  1.20329e-05
 Reference value :  1.20458e-05
 Reference value :  1.20718e-05
 Reference value :  1.21236e-05
 Reference value :  1.22273e-05
 Reference value :  1.22501e-05
 Reference value :  1.22501e-05
 Reference value :  1.22501e-05
 Reference value :  1.22502e-05
 Reference value :  1.22502e-05
 Reference value :  1.22502e-05
 Reference value :  1.22502e-05
 Reference value :  1.22502e-05
 Reference value :  1.22502e-05
 Reference value :  1.22502e-05
 Reference value :  1.22502e-05
 Reference value :  1.22503e-05
 Reference value :  1.22504e-05
 Reference value :  1.22506e-05
 Reference value :  1.22509e-05
 Reference value :  1.22515e-05
 Reference value :  1.22522e-05
 Reference value :  1.22529e-05
 Reference value :  1.22538e-05
 Reference value :  1.22548e-05
 Reference value :  1.22558e-05
 Reference value :  1.22568e-05
 Reference value :  1.22578e-05
 Reference value :  1.22588e-05
 Reference value :  1.22599e-05
 Reference value :  1.22612e-05
 Reference value :  1.22638e-05
 Reference value :  1.22666e-05
 Reference value :  1.22711e-05
 Reference value :  1.22773e-05
 Reference value :  1.22895e-05
 Reference value :  1.23141e-05
 Reference value :  1.23633e-05
 Reference value :  1.24616e-05
 Reference value :  1.25000e-05
 Reference value :  1.25000e-05
 Reference value :  1.25000e-05
 Reference value :  1.25001e-05
 Reference value :  1.25001e-05
 Reference value :  1.25001e-05
 Reference value :  1.25001e-05
 Reference value :  1.25001e-05
 Reference value :  1.25002e-05
 Reference value :  1.25002e-05
 Reference value :  1.25004e-05
 Reference value :  1.25006e-05
 Reference value :  1.25009e-05
 Reference value :  1.25016e-05
 Reference value :  1.25022e-05
 Reference value :  1.25029e-05
 Reference value :  1.25036e-05
 Reference value :  1.25044e-05
 Reference value :  1.25052e-05
 Reference value :  1.25061e-05
 Reference value :  1.25072e-05
 Reference value :  1.25082e-05
 Reference value :  1.25091e-05
 Reference value :  1.25101e-05
 Reference value :  1.25112e-05
 Reference value :  1.25125e-05
 Reference value :  1.25144e-05
 Reference value :  1.25173e-05
 Reference value :  1.25202e-05
 Reference value :  1.25225e-05
 Reference value :  1.25245e-05
 Reference value :  1.25263e-05
 Reference value :  1.25283e-05
 Reference value :  1.25302e-05
 Reference value :  1.25323e-05
 Reference value :  1.25347e-05
 Reference value :  1.25380e-05
 Reference value :  1.25419e-05
 Reference value :  1.25479e-05
 Reference value :  1.25548e-05
 Reference value :  1.25622e-05
 Reference value :  1.25676e-05
 Reference value :  1.25733e-05
 Reference value :  1.25783e-05
 Reference value :  1.25837e-05
 Reference value :  1.25926e-05
 Reference value :  1.25996e-05
 Reference value :  1.26075e-05
 Reference value :  1.26187e-05
 Reference value :  1.26367e-05
 Reference value :  1.26613e-05
 Reference value :  1.26994e-05
 Reference value :  1.27445e-05
 Reference value :  1.27501e-05
 Reference value :  1.27501e-05
 Reference value :  1.27501e-05
 Reference value :  1.27502e-05
 Reference value :  1.27502e-05
 Reference value :  1.27502e-05
 Reference value :  1.27502e-05
 Reference value :  1.27502e-05
 Reference value :  1.27502e-05
 Reference value :  1.27502e-05
 Reference value :  1.27502e-05
 Reference value :  1.27503e-05
 Reference value :  1.27504e-05
 Reference value :  1.27506e-05
 Reference value :  1.27509e-05
 Reference value :  1.27515e-05
 Reference value :  1.27522e-05
 Reference value :  1.27529e-05
 Reference value :  1.27538e-05
 Reference value :  1.27548e-05
 Reference value :  1.27557e-05
 Reference value :  1.27567e-05
 Reference value :  1.27577e-05
 Reference value :  1.27587e-05
 Reference value :  1.27604e-05
 Reference value :  1.27620e-05
 Reference value :  1.27648e-05
 Reference value :  1.27679e-05
 Reference value :  1.27729e-05
 Reference value :  1.27815e-05
 Reference value :  1.27987e-05
 Reference value :  1.28331e-05
 Reference value :  1.29019e-05
 Reference value :  1.30000e-05
 Reference value :  1.30000e-05
 Reference value :  1.30000e-05
 Reference value :  1.30001e-05
 Reference value :  1.30001e-05
 Reference value :  1.30001e-05
 Reference value :  1.30001e-05
 Reference value :  1.30001e-05
 Reference value :  1.30002e-05
 Reference value :  1.30002e-05
 Reference value :  1.30004e-05
 Reference value :  1.30006e-05
 Reference value :  1.30009e-05
 Reference value :  1.30016e-05
 Reference value :  1.30022e-05
 Reference value :  1.30029e-05
 Reference value :  1.30036e-05
 Reference value :  1.30043e-05
 Reference value :  1.30052e-05
 Reference value :  1.30061e-05
 Reference value :  1.30070e-05
 Reference value :  1.30084e-05
 Reference value :  1.30096e-05
 Reference value :  1.30112e-05
 Reference value :  1.30125e-05
 Reference value :  1.30139e-05
 Reference value :  1.30153e-05
 Reference value :  1.30170e-05
 Reference value :  1.30190e-05
 Reference value :  1.30208e-05
 Reference value :  1.30244e-05
 Reference value :  1.30316e-05
 Reference value :  1.30440e-05
 Reference value :  1.30688e-05
 Reference value :  1.31184e-05
 Reference value :  1.32175e-05
 Reference value :  1.32501e-05
 Reference value :  1.32501e-05
 Reference value :  1.32501e-05
 Reference value :  1.32502e-05
 Reference value :  1.32502e-05
 Reference value :  1.32502e-05
 Reference value :  1.32502e-05
 Reference value :  1.32502e-05
 Reference value :  1.32502e-05
 Reference value :  1.32502e-05
 Reference value :  1.32502e-05
 Reference value :  1.32503e-05
 Reference value :  1.32504e-05
 Reference value :  1.32506e-05
 Reference value :  1.32509e-05
 Reference value :  1.32515e-05
 Reference value :  1.32522e-05
 Reference value :  1.32529e-05
 Reference value :  1.32537e-05
 Reference value :  1.32548e-05
 Reference value :  1.32557e-05
 Reference value :  1.32568e-05
 Reference value :  1.32577e-05
 Reference value :  1.32587e-05
 Reference value :  1.32599e-05
 Reference value :  1.32611e-05
 Reference value :  1.32624e-05
 Reference value :  1.32642e-05
 Reference value :  1.32664e-05
 Reference value :  1.32691e-05
 Reference value :  1.32727e-05
 Reference value :  1.32779e-05
 Reference value :  1.32881e-05
 Reference value :  1.33044e-05
 Reference value :  1.33369e-05
 Reference value :  1.34020e-05
 Reference value :  1.35000e-05
 Reference value :  1.35000e-05
 Reference value :  1.35000e-05
 Reference value :  1.35001e-05
 Reference value :  1.35001e-05
 Reference value :  1.35001e-05
 Reference value :  1.35001e-05
 Reference value :  1.35001e-05
 Reference value :  1.35002e-05
 Reference value :  1.35002e-05
 Reference value :  1.35004e-05
 Reference value :  1.35006e-05
 Reference value :  1.35009e-05
 Reference value :  1.35016e-05
 Reference value :  1.35022e-05
 Reference value :  1.35029e-05
 Reference value :  1.35036e-05
 Reference value :  1.35044e-05
 Reference value :  1.35052e-05
 Reference value :  1.35061e-05
 Reference value :  1.35070e-05
 Reference value :  1.35079e-05
 Reference value :  1.35088e-05
 Reference value :  1.35098e-05
 Reference value :  1.35108e-05
 Reference value :  1.35122e-05
 Reference value :  1.35139e-05
 Reference value :  1.35154e-05
 Reference value :  1.35171e-05
 Reference value :  1.35188e-05
 Reference value :  1.35205e-05
 Reference value :  1.35223e-05
 Reference value :  1.35237e-05
 Reference value :  1.35250e-05
 Reference value :  1.35267e-05
 Reference value :  1.35284e-05
 Reference value :  1.35299e-05
 Reference value :  1.35320e-05
 Reference value :  1.35339e-05
 Reference value :  1.35371e-05
 Reference value :  1.35407e-05
 Reference value :  1.35442e-05
 Reference value :  1.35467e-05
 Reference value :  1.35491e-05
 Reference value :  1.35511e-05
 Reference value :  1.35536e-05
 Reference value :  1.35570e-05
 Reference value :  1.35608e-05
 Reference value :  1.35666e-05
 Reference value :  1.35742e-05
 Reference value :  1.35860e-05
 Reference value :  1.36028e-05
 Reference value :  1.36215e-05
 Reference value :  1.36504e-05
 Reference value :  1.37022e-05
 Reference value :  1.37501e-05
 Reference value :  1.37501e-05
 Reference value :  1.37501e-05
 Reference value :  1.37502e-05
 Reference value :  1.37502e-05
 Reference value :  1.37502e-05
 Reference value :  1.37502e-05
 Reference value :  1.37502e-05
 Reference value :  1.37502e-05
 Reference value :  1.37502e-05
 Reference value :  1.37502e-05
 Reference value :  1.37503e-05
 Reference value :  1.37504e-05
 Reference value :  1.37506e-05
 Reference value :  1.37509e-05
 Reference value :  1.37515e-05
 Reference value :  1.37522e-05
 Reference value :  1.37529e-05
 Reference value :  1.37538e-05
 Reference value :  1.37548e-05
 Reference value :  1.37558e-05
 Reference value :  1.37569e-05
 Reference value :  1.37580e-05
 Reference value :  1.37591e-05
 Reference value :  1.37608e-05
 Reference value :  1.37626e-05
 Reference value :  1.37654e-05
 Reference value :  1.37689e-05
 Reference value :  1.37742e-05
 Reference value :  1.37848e-05
 Reference value :  1.38031e-05
 Reference value :  1.38363e-05
 Reference value :  1.39029e-05
 Reference value :  1.40000e-05
 Reference value :  1.40000e-05
 Reference value :  1.40000e-05
 Reference value :  1.40001e-05
 Reference value :  1.40001e-05
 Reference value :  1.40001e-05
 Reference value :  1.40001e-05
 Reference value :  1.40001e-05
 Reference value :  1.40002e-05
 Reference value :  1.40002e-05
 Reference value :  1.40004e-05
 Reference value :  1.40006e-05
 Reference value :  1.40009e-05
 Reference value :  1.40016e-05
 Reference value :  1.40022e-05
 Reference value :  1.40029e-05
 Reference value :  1.40036e-05
 Reference value :  1.40044e-05
 Reference value :  1.40052e-05
 Reference value :  1.40062e-05
 Reference value :  1.40072e-05
 Reference value :  1.40085e-05
 Reference value :  1.40099e-05
 Reference value :  1.40113e-05
 Reference value :  1.40129e-05
 Reference value :  1.40146e-05
 Reference value :  1.40162e-05
 Reference value :  1.40178e-05
 Reference value :  1.40196e-05
 Reference value :  1.40216e-05
 Reference value :  1.40253e-05
 Reference value :  1.40306e-05
 Reference value :  1.40410e-05
 Reference value :  1.40604e-05
 Reference value :  1.40971e-05
 Reference value :  1.41704e-05
 Reference value :  1.42501e-05
 Reference value :  1.42501e-05
 Reference value :  1.42501e-05
 Reference value :  1.42502e-05
 Reference value :  1.42502e-05
 Reference value :  1.42502e-05
 Reference value :  1.42502e-05
 Reference value :  1.42502e-05
 Reference value :  1.42502e-05
 Reference value :  1.42502e-05
 Reference value :  1.42502e-05
 Reference value :  1.42503e-05
 Reference value :  1.42504e-05
 Reference value :  1.42506e-05
 Reference value :  1.42509e-05
 Reference value :  1.42515e-05
 Reference value :  1.42522e-05
 Reference value :  1.42529e-05
 Reference value :  1.42537e-05
 Reference value :  1.42548e-05
 Reference value :  1.42557e-05
 Reference value :  1.42568e-05
 Reference value :  1.42578e-05
 Reference value :  1.42588e-05
 Reference value :  1.42599e-05
 Reference value :  1.42612e-05
 Reference value :  1.42638e-05
 Reference value :  1.42666e-05
 Reference value :  1.42711e-05
 Reference value :  1.42773e-05
 Reference value :  1.42897e-05
 Reference value :  1.43145e-05
 Reference value :  1.43640e-05
 Reference value :  1.44630e-05
 Reference value :  1.45000e-05
 Reference value :  1.45000e-05
 Reference value :  1.45000e-05
 Reference value :  1.45001e-05
 Reference value :  1.45001e-05
 Reference value :  1.45001e-05
 Reference value :  1.45001e-05
 Reference value :  1.45001e-05
 Reference value :  1.45002e-05
 Reference value :  1.45002e-05
 Reference value :  1.45004e-05
 Reference value :  1.45006e-05
 Reference value :  1.45009e-05
 Reference value :  1.45016e-05
 Reference value :  1.45022e-05
 Reference value :  1.45029e-05
 Reference value :  1.45036e-05
 Reference value :  1.45044e-05
 Reference value :  1.45052e-05
 Reference value :  1.45062e-05
 Reference value :  1.45071e-05
 Reference value :  1.45081e-05
 Reference value :  1.45090e-05
 Reference value :  1.45100e-05
 Reference value :  1.45110e-05
 Reference value :  1.45123e-05
 Reference value :  1.45142e-05
 Reference value :  1.45173e-05
 Reference value :  1.45203e-05
 Reference value :  1.45227e-05
 Reference value :  1.45247e-05
 Reference value :  1.45267e-05
 Reference value :  1.45287e-05
 Reference value :  1.45307e-05
 Reference value :  1.45332e-05
 Reference value :  1.45355e-05
 Reference value :  1.45390e-05
 Reference value :  1.45435e-05
 Reference value :  1.45501e-05
 Reference value :  1.45564e-05
 Reference value :  1.45650e-05
 Reference value :  1.45705e-05
 Reference value :  1.45765e-05
 Reference value :  1.45836e-05
 Reference value :  1.45903e-05
 Reference value :  1.45968e-05
 Reference value :  1.46048e-05
 Reference value :  1.46195e-05
 Reference value :  1.46361e-05
 Reference value :  1.46646e-05
 Reference value :  1.47094e-05
 Reference value :  1.47501e-05
 Reference value :  1.47501e-05
 Reference value :  1.47501e-05
 Reference value :  1.47502e-05
 Reference value :  1.47502e-05
 Reference value :  1.47502e-05
 Reference value :  1.47502e-05
 Reference value :  1.47502e-05
 Reference value :  1.47502e-05
 Reference value :  1.47502e-05
 Reference value :  1.47502e-05
 Reference value :  1.47503e-05
 Reference value :  1.47504e-05
 Reference value :  1.47506e-05
 Reference value :  1.47509e-05
 Reference value :  1.47515e-05
 Reference value :  1.47522e-05
 Reference value :  1.47529e-05
 Reference value :  1.47538e-05
 Reference value :  1.47548e-05
 Reference value :  1.47557e-05
 Reference value :  1.47567e-05
 Reference value :  1.47577e-05
 Reference value :  1.47587e-05
 Reference value :  1.47604e-05
 Reference value :  1.47620e-05
 Reference value :  1.47649e-05
 Reference value :  1.47680e-05
 Reference value :  1.47730e-05
 Reference value :  1.47821e-05
 Reference value :  1.48003e-05
 Reference value :  1.48368e-05
 Reference value :  1.49097e-05
 Reference value :  1.50000e-05
 Reference value :  1.50000e-05
 Reference value :  1.50000e-05
 Reference value :  1.50001e-05
 Reference value :  1.50001e-05
 Reference value :  1.50001e-05
 Reference value :  1.50001e-05
 Reference value :  1.50001e-05
 Reference value :  1.50002e-05
 Reference value :  1.50002e-05
 Reference value :  1.50004e-05
 Reference value :  1.50006e-05
 Reference value :  1.50009e-05
 Reference value :  1.50016e-05
 Reference value :  1.50022e-05
 Reference value :  1.50029e-05
 Reference value :  1.50036e-05
 Reference value :  1.50043e-05
 Reference value :  1.50052e-05
 Reference value :  1.50061e-05
 Reference value :  1.50070e-05
 Reference value :  1.50084e-05
 Reference value :  1.50096e-05
 Reference value :  1.50112e-05
 Reference value :  1.50125e-05
 Reference value :  1.50139e-05
 Reference value :  1.50153e-05
 Reference value :  1.50169e-05
 Reference value :  1.50185e-05
 Reference value :  1.50203e-05
 Reference value :  1.50239e-05
 Reference value :  1.50311e-05
 Reference value :  1.50443e-05
 Reference value :  1.50705e-05
 Reference value :  1.51231e-05
 Reference value :  1.52282e-05
 Reference value :  1.52501e-05
 Reference value :  1.52501e-05
 Reference value :  1.52501e-05
 Reference value :  1.52502e-05
 Reference value :  1.52502e-05
 Reference value :  1.52502e-05
 Reference value :  1.52502e-05
 Reference value :  1.52502e-05
 Reference value :  1.52502e-05
 Reference value :  1.52502e-05
 Reference value :  1.52502e-05
 Reference value :  1.52503e-05
 Reference value :  1.52504e-05
 Reference value :  1.52506e-05
 Reference value :  1.52509e-05
 Reference value :  1.52515e-05
 Reference value :  1.52522e-05
 Reference value :  1.52529e-05
 Reference value :  1.52537e-05
 Reference value :  1.52548e-05
 Reference value :  1.52557e-05
 Reference value :  1.52568e-05
 Reference value :  1.52578e-05
 Reference value :  1.52588e-05
 Reference value :  1.52599e-05
 Reference value :  1.52612e-05
 Reference value :  1.52625e-05
 Reference value :  1.52643e-05
 Reference value :  1.52666e-05
 Reference value :  1.52693e-05
 Reference value :  1.52731e-05
 Reference value :  1.52783e-05
 Reference value :  1.52888e-05
 Reference value :  1.53085e-05
 Reference value :  1.53478e-05
 Reference value :  1.54264e-05
 Reference value :  1.55000e-05
 Reference value :  1.55010e-05
 Reference value :  1.55031e-05
 Reference value :  1.55042e-05
 Reference value :  1.55053e-05
 Reference value :  1.55063e-05
 Reference value :  1.55071e-05
 Reference value :  1.55080e-05
 Reference value :  1.55088e-05
 Reference value :  1.55098e-05
 Reference value :  1.55107e-05
 Reference value :  1.55121e-05
 Reference value :  1.55135e-05
 Reference value :  1.55159e-05
 Reference value :  1.55175e-05
 Reference value :  1.55193e-05
 Reference value :  1.55210e-05
 Reference value :  1.55229e-05
 Reference value :  1.55245e-05
 Reference value :  1.55258e-05
 Reference value :  1.55272e-05
 Reference value :  1.55285e-05
 Reference value :  1.55300e-05
 Reference value :  1.55317e-05
 Reference value :  1.55335e-05
 Reference value :  1.55365e-05
 Reference value :  1.55396e-05
 Reference value :  1.55441e-05
 Reference value :  1.55472e-05
 Reference value :  1.55505e-05
 Reference value :  1.55551e-05
 Reference value :  1.55601e-05
 Reference value :  1.55670e-05
 Reference value :  1.55748e-05
 Reference value :  1.55868e-05
 Reference value :  1.56088e-05
 Reference value :  1.56407e-05
 Reference value :  1.56969e-05
 Reference value :  1.57501e-05
 Reference value :  1.57501e-05
 Reference value :  1.57501e-05
 Reference value :  1.57502e-05
 Reference value :  1.57502e-05
 Reference value :  1.57502e-05
 Reference value :  1.57502e-05
 Reference value :  1.57502e-05
 Reference value :  1.57502e-05
 Reference value :  1.57502e-05
 Reference value :  1.57502e-05
 Reference value :  1.57503e-05
[...]
 Reference value :  2.67762e-04
 Reference value :  2.67765e-04
 Reference value :  2.67768e-04
 Reference value :  2.67773e-04
 Reference value :  2.67782e-04
 Reference value :  2.67800e-04
 Reference value :  2.67835e-04
 Reference value :  2.67907e-04
 Reference value :  2.68000e-04
 Reference value :  2.68000e-04
 Reference value :  2.68000e-04
 Reference value :  2.68000e-04
 Reference value :  2.68000e-04
 Reference value :  2.68000e-04
 Reference value :  2.68000e-04
 Reference value :  2.68000e-04
 Reference value :  2.68000e-04
 Reference value :  2.68000e-04
 Reference value :  2.68000e-04
 Reference value :  2.68001e-04
 Reference value :  2.68001e-04
 Reference value :  2.68002e-04
 Reference value :  2.68002e-04
 Reference value :  2.68003e-04
 Reference value :  2.68004e-04
 Reference value :  2.68004e-04
 Reference value :  2.68005e-04
 Reference value :  2.68006e-04
 Reference value :  2.68007e-04
 Reference value :  2.68008e-04
 Reference value :  2.68010e-04
 Reference value :  2.68011e-04
 Reference value :  2.68012e-04
 Reference value :  2.68014e-04
 Reference value :  2.68015e-04
 Reference value :  2.68017e-04
 Reference value :  2.68019e-04
 Reference value :  2.68021e-04
 Reference value :  2.68024e-04
 Reference value :  2.68032e-04
 Reference value :  2.68044e-04
 Reference value :  2.68069e-04
 Reference value :  2.68118e-04
 Reference value :  2.68217e-04
 Reference value :  2.68250e-04
 Reference value :  2.68250e-04
 Reference value :  2.68250e-04
 Reference value :  2.68250e-04
 Reference value :  2.68250e-04
 Reference value :  2.68250e-04
 Reference value :  2.68250e-04
 Reference value :  2.68250e-04
 Reference value :  2.68250e-04
 Reference value :  2.68250e-04
 Reference value :  2.68250e-04
 Reference value :  2.68250e-04
 Reference value :  2.68250e-04
 Reference value :  2.68251e-04
 Reference value :  2.68251e-04
 Reference value :  2.68252e-04
 Reference value :  2.68252e-04
 Reference value :  2.68253e-04
 Reference value :  2.68254e-04
 Reference value :  2.68255e-04
 Reference value :  2.68256e-04
 Reference value :  2.68257e-04
 Reference value :  2.68258e-04
 Reference value :  2.68259e-04
 Reference value :  2.68260e-04
 Reference value :  2.68261e-04
 Reference value :  2.68262e-04
 Reference value :  2.68264e-04
 Reference value :  2.68266e-04
 Reference value :  2.68269e-04
 Reference value :  2.68273e-04
 Reference value :  2.68278e-04
 Reference value :  2.68288e-04
 Reference value :  2.68305e-04
 Reference value :  2.68338e-04
 Reference value :  2.68403e-04
 Reference value :  2.68500e-04
 Reference value :  2.68500e-04
 Reference value :  2.68500e-04
 Reference value :  2.68500e-04
 Reference value :  2.68500e-04
 Reference value :  2.68500e-04
 Reference value :  2.68500e-04
 Reference value :  2.68500e-04
 Reference value :  2.68500e-04
 Reference value :  2.68500e-04
 Reference value :  2.68500e-04
 Reference value :  2.68501e-04
 Reference value :  2.68501e-04
 Reference value :  2.68502e-04
 Reference value :  2.68502e-04
 Reference value :  2.68503e-04
 Reference value :  2.68504e-04
 Reference value :  2.68504e-04
 Reference value :  2.68505e-04
 Reference value :  2.68506e-04
 Reference value :  2.68507e-04
 Reference value :  2.68508e-04
 Reference value :  2.68509e-04
 Reference value :  2.68510e-04
 Reference value :  2.68511e-04
 Reference value :  2.68512e-04
 Reference value :  2.68514e-04
 Reference value :  2.68515e-04
 Reference value :  2.68517e-04
 Reference value :  2.68519e-04
 Reference value :  2.68521e-04
 Reference value :  2.68522e-04
 Reference value :  2.68524e-04
 Reference value :  2.68525e-04
 Reference value :  2.68527e-04
 Reference value :  2.68528e-04
 Reference value :  2.68530e-04
 Reference value :  2.68532e-04
 Reference value :  2.68534e-04
 Reference value :  2.68537e-04
 Reference value :  2.68541e-04
 Reference value :  2.68548e-04
 Reference value :  2.68560e-04
 Reference value :  2.68573e-04
 Reference value :  2.68583e-04
 Reference value :  2.68593e-04
 Reference value :  2.68601e-04
 Reference value :  2.68610e-04
 Reference value :  2.68622e-04
 Reference value :  2.68633e-04
 Reference value :  2.68656e-04
 Reference value :  2.68687e-04
 Reference value :  2.68720e-04
 Reference value :  2.68744e-04
 Reference value :  2.68750e-04
 Reference value :  2.68750e-04
 Reference value :  2.68750e-04
 Reference value :  2.68750e-04
 Reference value :  2.68750e-04
 Reference value :  2.68750e-04
 Reference value :  2.68750e-04
 Reference value :  2.68750e-04
 Reference value :  2.68750e-04
 Reference value :  2.68750e-04
 Reference value :  2.68750e-04
 Reference value :  2.68750e-04
 Reference value :  2.68750e-04
 Reference value :  2.68751e-04
 Reference value :  2.68751e-04
 Reference value :  2.68752e-04
 Reference value :  2.68752e-04
 Reference value :  2.68753e-04
 Reference value :  2.68754e-04
 Reference value :  2.68755e-04
 Reference value :  2.68756e-04
 Reference value :  2.68757e-04
 Reference value :  2.68758e-04
 Reference value :  2.68759e-04
 Reference value :  2.68761e-04
 Reference value :  2.68762e-04
 Reference value :  2.68765e-04
 Reference value :  2.68769e-04
 Reference value :  2.68774e-04
 Reference value :  2.68784e-04
 Reference value :  2.68803e-04
 Reference value :  2.68836e-04
 Reference value :  2.68904e-04
 Reference value :  2.69000e-04
 Reference value :  2.69000e-04
 Reference value :  2.69000e-04
 Reference value :  2.69000e-04
 Reference value :  2.69000e-04
 Reference value :  2.69000e-04
 Reference value :  2.69000e-04
 Reference value :  2.69000e-04
 Reference value :  2.69000e-04
 Reference value :  2.69000e-04
 Reference value :  2.69000e-04
 Reference value :  2.69001e-04
 Reference value :  2.69001e-04
 Reference value :  2.69002e-04
 Reference value :  2.69002e-04
 Reference value :  2.69003e-04
 Reference value :  2.69004e-04
 Reference value :  2.69004e-04
 Reference value :  2.69005e-04
 Reference value :  2.69006e-04
 Reference value :  2.69007e-04
 Reference value :  2.69008e-04
 Reference value :  2.69010e-04
 Reference value :  2.69011e-04
 Reference value :  2.69013e-04
 Reference value :  2.69014e-04
 Reference value :  2.69016e-04
 Reference value :  2.69018e-04
 Reference value :  2.69019e-04
 Reference value :  2.69021e-04
 Reference value :  2.69025e-04
 Reference value :  2.69030e-04
 Reference value :  2.69041e-04
 Reference value :  2.69063e-04
 Reference value :  2.69104e-04
 Reference value :  2.69186e-04
 Reference value :  2.69250e-04
 Reference value :  2.69250e-04
 Reference value :  2.69250e-04
 Reference value :  2.69250e-04
 Reference value :  2.69250e-04
 Reference value :  2.69250e-04
 Reference value :  2.69250e-04
 Reference value :  2.69250e-04
 Reference value :  2.69250e-04
 Reference value :  2.69250e-04
 Reference value :  2.69250e-04
 Reference value :  2.69250e-04
 Reference value :  2.69250e-04
 Reference value :  2.69251e-04
 Reference value :  2.69251e-04
 Reference value :  2.69252e-04
 Reference value :  2.69252e-04
 Reference value :  2.69253e-04
 Reference value :  2.69254e-04
 Reference value :  2.69255e-04
 Reference value :  2.69256e-04
 Reference value :  2.69257e-04
 Reference value :  2.69258e-04
 Reference value :  2.69259e-04
 Reference value :  2.69260e-04
 Reference value :  2.69261e-04
 Reference value :  2.69263e-04
 Reference value :  2.69264e-04
 Reference value :  2.69267e-04
 Reference value :  2.69270e-04
 Reference value :  2.69273e-04
 Reference value :  2.69279e-04
 Reference value :  2.69289e-04
 Reference value :  2.69311e-04
 Reference value :  2.69354e-04
 Reference value :  2.69439e-04
 Reference value :  2.69500e-04
 Reference value :  2.69500e-04
 Reference value :  2.69500e-04
 Reference value :  2.69500e-04
 Reference value :  2.69500e-04
 Reference value :  2.69500e-04
 Reference value :  2.69500e-04
 Reference value :  2.69500e-04
 Reference value :  2.69500e-04
 Reference value :  2.69500e-04
 Reference value :  2.69500e-04
 Reference value :  2.69501e-04
 Reference value :  2.69501e-04
 Reference value :  2.69502e-04
 Reference value :  2.69502e-04
 Reference value :  2.69503e-04
 Reference value :  2.69504e-04
 Reference value :  2.69504e-04
 Reference value :  2.69505e-04
 Reference value :  2.69506e-04
 Reference value :  2.69507e-04
 Reference value :  2.69508e-04
 Reference value :  2.69509e-04
 Reference value :  2.69510e-04
 Reference value :  2.69511e-04
 Reference value :  2.69512e-04
 Reference value :  2.69514e-04
 Reference value :  2.69516e-04
 Reference value :  2.69518e-04
 Reference value :  2.69520e-04
 Reference value :  2.69521e-04
 Reference value :  2.69523e-04
 Reference value :  2.69525e-04
 Reference value :  2.69526e-04
 Reference value :  2.69527e-04
 Reference value :  2.69529e-04
 Reference value :  2.69530e-04
 Reference value :  2.69532e-04
 Reference value :  2.69534e-04
 Reference value :  2.69537e-04
 Reference value :  2.69541e-04
 Reference value :  2.69548e-04
 Reference value :  2.69557e-04
 Reference value :  2.69567e-04
 Reference value :  2.69579e-04
 Reference value :  2.69593e-04
 Reference value :  2.69621e-04
 Reference value :  2.69647e-04
 Reference value :  2.69699e-04
 Reference value :  2.69750e-04
 Reference value :  2.69750e-04
 Reference value :  2.69750e-04
 Reference value :  2.69750e-04
 Reference value :  2.69750e-04
 Reference value :  2.69750e-04
 Reference value :  2.69750e-04
 Reference value :  2.69750e-04
 Reference value :  2.69750e-04
 Reference value :  2.69750e-04
 Reference value :  2.69750e-04
 Reference value :  2.69750e-04
 Reference value :  2.69750e-04
 Reference value :  2.69751e-04
 Reference value :  2.69751e-04
 Reference value :  2.69752e-04
 Reference value :  2.69752e-04
 Reference value :  2.69753e-04
 Reference value :  2.69754e-04
 Reference value :  2.69755e-04
 Reference value :  2.69756e-04
 Reference value :  2.69757e-04
 Reference value :  2.69758e-04
 Reference value :  2.69759e-04
 Reference value :  2.69761e-04
 Reference value :  2.69762e-04
 Reference value :  2.69765e-04
 Reference value :  2.69769e-04
 Reference value :  2.69774e-04
 Reference value :  2.69784e-04
 Reference value :  2.69803e-04
 Reference value :  2.69836e-04
 Reference value :  2.69903e-04
 Reference value :  2.70000e-04
 Reference value :  2.70000e-04
 Reference value :  2.70000e-04
 Reference value :  2.70000e-04
 Reference value :  2.70000e-04
 Reference value :  2.70000e-04
 Reference value :  2.70000e-04
 Reference value :  2.70000e-04
 Reference value :  2.70000e-04
 Reference value :  2.70000e-04
 Reference value :  2.70000e-04
 Reference value :  2.70001e-04
 Reference value :  2.70001e-04
 Reference value :  2.70002e-04
 Reference value :  2.70002e-04
 Reference value :  2.70003e-04
 Reference value :  2.70004e-04
 Reference value :  2.70004e-04
 Reference value :  2.70005e-04
 Reference value :  2.70006e-04
 Reference value :  2.70007e-04
 Reference value :  2.70008e-04
 Reference value :  2.70010e-04
 Reference value :  2.70011e-04
 Reference value :  2.70013e-04
 Reference value :  2.70014e-04
 Reference value :  2.70015e-04
 Reference value :  2.70017e-04
 Reference value :  2.70019e-04
 Reference value :  2.70020e-04
 Reference value :  2.70024e-04
 Reference value :  2.70031e-04
 Reference value :  2.70044e-04
 Reference value :  2.70071e-04
 Reference value :  2.70123e-04
 Reference value :  2.70228e-04
 Reference value :  2.70250e-04
 Reference value :  2.70250e-04
 Reference value :  2.70250e-04
 Reference value :  2.70250e-04
 Reference value :  2.70250e-04
 Reference value :  2.70250e-04
 Reference value :  2.70250e-04
 Reference value :  2.70250e-04
 Reference value :  2.70250e-04
 Reference value :  2.70250e-04
 Reference value :  2.70250e-04
 Reference value :  2.70250e-04
 Reference value :  2.70250e-04
 Reference value :  2.70251e-04
 Reference value :  2.70251e-04
 Reference value :  2.70252e-04
 Reference value :  2.70252e-04
 Reference value :  2.70253e-04
 Reference value :  2.70254e-04
 Reference value :  2.70255e-04
 Reference value :  2.70256e-04
 Reference value :  2.70257e-04
 Reference value :  2.70258e-04
 Reference value :  2.70259e-04
 Reference value :  2.70260e-04
 Reference value :  2.70261e-04
 Reference value :  2.70263e-04
 Reference value :  2.70264e-04
 Reference value :  2.70267e-04
 Reference value :  2.70269e-04
 Reference value :  2.70273e-04
 Reference value :  2.70279e-04
 Reference value :  2.70289e-04
 Reference value :  2.70310e-04
 Reference value :  2.70353e-04
 Reference value :  2.70438e-04
 Reference value :  2.70500e-04
 Reference value :  2.70500e-04
 Reference value :  2.70500e-04
 Reference value :  2.70500e-04
 Reference value :  2.70500e-04
 Reference value :  2.70500e-04
 Reference value :  2.70500e-04
 Reference value :  2.70500e-04
 Reference value :  2.70500e-04
 Reference value :  2.70500e-04
 Reference value :  2.70500e-04
 Reference value :  2.70501e-04
 Reference value :  2.70501e-04
 Reference value :  2.70502e-04
 Reference value :  2.70502e-04
 Reference value :  2.70503e-04
 Reference value :  2.70504e-04
 Reference value :  2.70504e-04
 Reference value :  2.70505e-04
 Reference value :  2.70506e-04
 Reference value :  2.70507e-04
 Reference value :  2.70508e-04
 Reference value :  2.70509e-04
 Reference value :  2.70510e-04
 Reference value :  2.70511e-04
 Reference value :  2.70512e-04
 Reference value :  2.70514e-04
 Reference value :  2.70516e-04
 Reference value :  2.70518e-04
 Reference value :  2.70519e-04
 Reference value :  2.70521e-04
 Reference value :  2.70523e-04
 Reference value :  2.70524e-04
 Reference value :  2.70526e-04
 Reference value :  2.70528e-04
 Reference value :  2.70529e-04
 Reference value :  2.70531e-04
 Reference value :  2.70532e-04
 Reference value :  2.70535e-04
 Reference value :  2.70537e-04
 Reference value :  2.70542e-04
 Reference value :  2.70548e-04
 Reference value :  2.70555e-04
 Reference value :  2.70564e-04
 Reference value :  2.70578e-04
 Reference value :  2.70603e-04
 Reference value :  2.70645e-04
 Reference value :  2.70727e-04
 Reference value :  2.70750e-04
 Reference value :  2.70750e-04
 Reference value :  2.70750e-04
 Reference value :  2.70750e-04
 Reference value :  2.70750e-04
 Reference value :  2.70750e-04
 Reference value :  2.70750e-04
 Reference value :  2.70750e-04
 Reference value :  2.70750e-04
 Reference value :  2.70750e-04
 Reference value :  2.70750e-04
 Reference value :  2.70750e-04
 Reference value :  2.70750e-04
 Reference value :  2.70751e-04
 Reference value :  2.70751e-04
 Reference value :  2.70752e-04
 Reference value :  2.70752e-04
 Reference value :  2.70753e-04
 Reference value :  2.70754e-04
 Reference value :  2.70755e-04
 Reference value :  2.70756e-04
 Reference value :  2.70757e-04
 Reference value :  2.70758e-04
 Reference value :  2.70759e-04
 Reference value :  2.70760e-04
 Reference value :  2.70762e-04
 Reference value :  2.70765e-04
 Reference value :  2.70768e-04
 Reference value :  2.70773e-04
 Reference value :  2.70783e-04
 Reference value :  2.70802e-04
 Reference value :  2.70840e-04
 Reference value :  2.70915e-04
 Reference value :  2.71000e-04
 Reference value :  2.71000e-04
 Reference value :  2.71000e-04
 Reference value :  2.71000e-04
 Reference value :  2.71000e-04
 Reference value :  2.71000e-04
 Reference value :  2.71000e-04
 Reference value :  2.71000e-04
 Reference value :  2.71000e-04
 Reference value :  2.71000e-04
 Reference value :  2.71000e-04
 Reference value :  2.71001e-04
 Reference value :  2.71001e-04
 Reference value :  2.71002e-04
 Reference value :  2.71002e-04
 Reference value :  2.71003e-04
 Reference value :  2.71004e-04
 Reference value :  2.71004e-04
 Reference value :  2.71005e-04
 Reference value :  2.71006e-04
 Reference value :  2.71007e-04
 Reference value :  2.71008e-04
 Reference value :  2.71010e-04
 Reference value :  2.71011e-04
 Reference value :  2.71013e-04
 Reference value :  2.71014e-04
 Reference value :  2.71016e-04
 Reference value :  2.71017e-04
 Reference value :  2.71019e-04
 Reference value :  2.71021e-04
 Reference value :  2.71025e-04
 Reference value :  2.71032e-04
 Reference value :  2.71045e-04
 Reference value :  2.71071e-04
 Reference value :  2.71122e-04
 Reference value :  2.71226e-04
 Reference value :  2.71250e-04
 Reference value :  2.71250e-04
 Reference value :  2.71250e-04
 Reference value :  2.71250e-04
 Reference value :  2.71250e-04
 Reference value :  2.71250e-04
 Reference value :  2.71250e-04
 Reference value :  2.71250e-04
 Reference value :  2.71250e-04
 Reference value :  2.71250e-04
 Reference value :  2.71250e-04
 Reference value :  2.71250e-04
 Reference value :  2.71250e-04
 Reference value :  2.71251e-04
 Reference value :  2.71251e-04
 Reference value :  2.71252e-04
 Reference value :  2.71252e-04
 Reference value :  2.71253e-04
 Reference value :  2.71254e-04
 Reference value :  2.71255e-04
 Reference value :  2.71256e-04
 Reference value :  2.71257e-04
 Reference value :  2.71258e-04
 Reference value :  2.71259e-04
 Reference value :  2.71260e-04
 Reference value :  2.71261e-04
 Reference value :  2.71262e-04
 Reference value :  2.71264e-04
 Reference value :  2.71266e-04
 Reference value :  2.71269e-04
 Reference value :  2.71272e-04
 Reference value :  2.71277e-04
 Reference value :  2.71287e-04
 Reference value :  2.71303e-04
 Reference value :  2.71333e-04
 Reference value :  2.71393e-04
 Reference value :  2.71500e-04
 Reference value :  2.71500e-04
 Reference value :  2.71500e-04
 Reference value :  2.71500e-04
 Reference value :  2.71500e-04
 Reference value :  2.71500e-04
 Reference value :  2.71500e-04
 Reference value :  2.71500e-04
 Reference value :  2.71500e-04
 Reference value :  2.71500e-04
 Reference value :  2.71500e-04
 Reference value :  2.71501e-04
 Reference value :  2.71501e-04
 Reference value :  2.71502e-04
 Reference value :  2.71502e-04
 Reference value :  2.71503e-04
 Reference value :  2.71504e-04
 Reference value :  2.71504e-04
 Reference value :  2.71505e-04
 Reference value :  2.71506e-04
 Reference value :  2.71507e-04
 Reference value :  2.71508e-04
 Reference value :  2.71509e-04
 Reference value :  2.71510e-04
 Reference value :  2.71511e-04
 Reference value :  2.71512e-04
 Reference value :  2.71514e-04
 Reference value :  2.71516e-04
 Reference value :  2.71518e-04
 Reference value :  2.71520e-04
 Reference value :  2.71521e-04
 Reference value :  2.71523e-04
 Reference value :  2.71525e-04
 Reference value :  2.71527e-04
 Reference value :  2.71531e-04
 Reference value :  2.71535e-04
 Reference value :  2.71540e-04
 Reference value :  2.71550e-04
 Reference value :  2.71563e-04
 Reference value :  2.71578e-04
 Reference value :  2.71597e-04
 Reference value :  2.71624e-04
 Reference value :  2.71654e-04
 Reference value :  2.71705e-04
 Reference value :  2.71750e-04
 Reference value :  2.71750e-04
 Reference value :  2.71750e-04
 Reference value :  2.71750e-04
 Reference value :  2.71750e-04
 Reference value :  2.71750e-04
 Reference value :  2.71750e-04
 Reference value :  2.71750e-04
 Reference value :  2.71750e-04
 Reference value :  2.71750e-04
 Reference value :  2.71750e-04
 Reference value :  2.71750e-04
 Reference value :  2.71750e-04
 Reference value :  2.71751e-04
 Reference value :  2.71751e-04
 Reference value :  2.71752e-04
 Reference value :  2.71752e-04
 Reference value :  2.71753e-04
 Reference value :  2.71754e-04
 Reference value :  2.71755e-04
 Reference value :  2.71756e-04
 Reference value :  2.71758e-04
 Reference value :  2.71759e-04
 Reference value :  2.71761e-04
 Reference value :  2.71763e-04
 Reference value :  2.71766e-04
 Reference value :  2.71770e-04
 Reference value :  2.71776e-04
 Reference value :  2.71788e-04
 Reference value :  2.71811e-04
 Reference value :  2.71858e-04
 Reference value :  2.71950e-04
 Reference value :  2.72000e-04
No. of Data Rows : 42088
ngspice-44 done
