
Note: Compatibility modes selected: hs a


Circuit: ** sch_path: /home/audrey/cace/sar-adc-using-sky130-pdk/runs/run_2025-08-29_18-41-33/parameters/power/run_6/power_consumption.sch

option SCALE: Scale is set to 1e-06 for instance and model parameters
option SCALE: Scale is set to 1e-06 for instance and model parameters
option SCALE: Scale is set to 1e-06 for instance and model parameters
option SCALE: Scale is set to 1e-06 for instance and model parameters
Doing analysis at TEMP = 27.000000 and TNOM = 27.000000

Using KLU as Direct Linear Solver
Operating point simulation skipped by 'uic',
  now using transient initial conditions.
 Reference value :  5.00000e-12
 Reference value :  5.12979e-12
 Reference value :  5.38936e-12
 Reference value :  5.90850e-12
 Reference value :  6.94678e-12
 Reference value :  8.80406e-12
 Reference value :  1.18030e-11
 Reference value :  1.72152e-11
 Reference value :  2.78247e-11
 Reference value :  4.10275e-11
 Reference value :  6.51432e-11
 Reference value :  9.38594e-11
 Reference value :  1.45272e-10
 Reference value :  2.05089e-10
 Reference value :  3.24722e-10
 Reference value :  4.60207e-10
 Reference value :  5.00000e-10
 Reference value :  5.04740e-10
 Reference value :  5.14221e-10
 Reference value :  5.33182e-10
 Reference value :  5.71105e-10
 Reference value :  6.46950e-10
 Reference value :  7.98641e-10
 Reference value :  1.10202e-09
 Reference value :  1.70879e-09
 Reference value :  2.92231e-09
 Reference value :  4.26123e-09
 Reference value :  6.93906e-09
 Reference value :  1.12300e-08
 Reference value :  1.63073e-08
 Reference value :  2.64621e-08
 Reference value :  3.82396e-08
 Reference value :  6.07972e-08
 Reference value :  8.99022e-08
 Reference value :  1.48112e-07
 Reference value :  2.48437e-07
 Reference value :  3.50804e-07
 Reference value :  4.61928e-07
 Reference value :  5.00000e-07
 Reference value :  5.18295e-07
 Reference value :  5.54885e-07
 Reference value :  6.28065e-07
 Reference value :  7.74424e-07
 Reference value :  9.72230e-07
 Reference value :  1.00050e-06
 Reference value :  1.00055e-06
 Reference value :  1.00065e-06
 Reference value :  1.00085e-06
 Reference value :  1.00100e-06
 Reference value :  1.00103e-06
 Reference value :  1.00108e-06
 Reference value :  1.00119e-06
 Reference value :  1.00141e-06
 Reference value :  1.00174e-06
 Reference value :  1.00218e-06
 Reference value :  1.00282e-06
 Reference value :  1.00409e-06
 Reference value :  1.00663e-06
 Reference value :  1.01172e-06
 Reference value :  1.01956e-06
 Reference value :  1.02976e-06
 Reference value :  1.04408e-06
 Reference value :  1.06488e-06
 Reference value :  1.08401e-06
 Reference value :  1.10563e-06
 Reference value :  1.12134e-06
 Reference value :  1.13450e-06
 Reference value :  1.14468e-06
 Reference value :  1.15426e-06
 Reference value :  1.16241e-06
 Reference value :  1.16920e-06
 Reference value :  1.17658e-06
 Reference value :  1.18177e-06
 Reference value :  1.18725e-06
 Reference value :  1.19452e-06
 Reference value :  1.20246e-06
 Reference value :  1.21286e-06
 Reference value :  1.22399e-06
 Reference value :  1.23196e-06
 Reference value :  1.24001e-06
 Reference value :  1.25066e-06
 Reference value :  1.26194e-06
 Reference value :  1.28351e-06
 Reference value :  1.30435e-06
 Reference value :  1.32705e-06
 Reference value :  1.33916e-06
 Reference value :  1.35184e-06
 Reference value :  1.36295e-06
 Reference value :  1.37587e-06
 Reference value :  1.39460e-06
 Reference value :  1.41309e-06
 Reference value :  1.43253e-06
 Reference value :  1.45378e-06
 Reference value :  1.47738e-06
 Reference value :  1.49866e-06
 Reference value :  1.52308e-06
 Reference value :  1.54978e-06
 Reference value :  1.58552e-06
 Reference value :  1.63198e-06
 Reference value :  1.67112e-06
 Reference value :  1.71044e-06
 Reference value :  1.74735e-06
 Reference value :  1.79357e-06
 Reference value :  1.85437e-06
 Reference value :  1.90042e-06
 Reference value :  1.94916e-06
 Reference value :  1.99072e-06
 Reference value :  2.00000e-06
 Reference value :  2.00005e-06
 Reference value :  2.00015e-06
 Reference value :  2.00035e-06
 Reference value :  2.00050e-06
 Reference value :  2.00051e-06
 Reference value :  2.00053e-06
 Reference value :  2.00056e-06
 Reference value :  2.00064e-06
 Reference value :  2.00079e-06
 Reference value :  2.00108e-06
 Reference value :  2.00167e-06
 Reference value :  2.00256e-06
 Reference value :  2.00379e-06
 Reference value :  2.00567e-06
 Reference value :  2.00797e-06
 Reference value :  2.01097e-06
 Reference value :  2.01438e-06
 Reference value :  2.02121e-06
 Reference value :  2.03487e-06
 Reference value :  2.06218e-06
 Reference value :  2.09581e-06
 Reference value :  2.12641e-06
 Reference value :  2.14925e-06
 Reference value :  2.17079e-06
 Reference value :  2.19313e-06
 Reference value :  2.21956e-06
 Reference value :  2.24480e-06
 Reference value :  2.27814e-06
 Reference value :  2.31636e-06
 Reference value :  2.36568e-06
 Reference value :  2.43123e-06
 Reference value :  2.51743e-06
 Reference value :  2.63679e-06
 Reference value :  2.80145e-06
 Reference value :  3.00050e-06
 Reference value :  3.00055e-06
 Reference value :  3.00065e-06
 Reference value :  3.00085e-06
 Reference value :  3.00100e-06
 Reference value :  3.00103e-06
 Reference value :  3.00110e-06
 Reference value :  3.00123e-06
 Reference value :  3.00148e-06
 Reference value :  3.00181e-06
 Reference value :  3.00216e-06
 Reference value :  3.00275e-06
 Reference value :  3.00380e-06
 Reference value :  3.00590e-06
 Reference value :  3.01011e-06
 Reference value :  3.01852e-06
 Reference value :  3.03535e-06
 Reference value :  3.05890e-06
 Reference value :  3.09247e-06
 Reference value :  3.13081e-06
 Reference value :  3.17488e-06
 Reference value :  3.20469e-06
 Reference value :  3.23398e-06
 Reference value :  3.26614e-06
 Reference value :  3.30012e-06
 Reference value :  3.34210e-06
 Reference value :  3.39149e-06
 Reference value :  3.45442e-06
 Reference value :  3.53524e-06
 Reference value :  3.64081e-06
 Reference value :  3.75747e-06
 Reference value :  3.83676e-06
 Reference value :  3.91091e-06
 Reference value :  3.97842e-06
 Reference value :  4.00000e-06
 Reference value :  4.00005e-06
 Reference value :  4.00015e-06
 Reference value :  4.00035e-06
 Reference value :  4.00050e-06
 Reference value :  4.00051e-06
 Reference value :  4.00053e-06
 Reference value :  4.00057e-06
 Reference value :  4.00064e-06
 Reference value :  4.00079e-06
 Reference value :  4.00109e-06
 Reference value :  4.00169e-06
 Reference value :  4.00290e-06
 Reference value :  4.00521e-06
 Reference value :  4.00767e-06
 Reference value :  4.01179e-06
 Reference value :  4.01696e-06
 Reference value :  4.02406e-06
 Reference value :  4.03219e-06
 Reference value :  4.04586e-06
 Reference value :  4.06966e-06
 Reference value :  4.11029e-06
 Reference value :  4.19156e-06
 Reference value :  4.34066e-06
 Reference value :  4.51006e-06
 Reference value :  4.75781e-06
 Reference value :  5.00050e-06
 Reference value :  5.00055e-06
 Reference value :  5.00065e-06
 Reference value :  5.00085e-06
 Reference value :  5.00100e-06
 Reference value :  5.00103e-06
 Reference value :  5.00109e-06
 Reference value :  5.00120e-06
 Reference value :  5.00143e-06
 Reference value :  5.00172e-06
 Reference value :  5.00211e-06
 Reference value :  5.00266e-06
 Reference value :  5.00377e-06
 Reference value :  5.00598e-06
 Reference value :  5.01040e-06
 Reference value :  5.01925e-06
 Reference value :  5.03693e-06
 Reference value :  5.06462e-06
 Reference value :  5.09863e-06
 Reference value :  5.14540e-06
 Reference value :  5.20782e-06
 Reference value :  5.30011e-06
 Reference value :  5.43029e-06
 Reference value :  5.57401e-06
 Reference value :  5.73685e-06
 Reference value :  5.74679e-06
 Reference value :  5.76668e-06
 Reference value :  5.78560e-06
 Reference value :  5.80342e-06
 Reference value :  5.81786e-06
 Reference value :  5.83261e-06
 Reference value :  5.84593e-06
 Reference value :  5.86460e-06
 Reference value :  5.89045e-06
 Reference value :  5.92548e-06
 Reference value :  5.98290e-06
 Reference value :  6.00000e-06
 Reference value :  6.00005e-06
 Reference value :  6.00015e-06
 Reference value :  6.00035e-06
 Reference value :  6.00050e-06
 Reference value :  6.00051e-06
 Reference value :  6.00054e-06
 Reference value :  6.00059e-06
 Reference value :  6.00070e-06
 Reference value :  6.00091e-06
 Reference value :  6.00134e-06
 Reference value :  6.00218e-06
 Reference value :  6.00388e-06
 Reference value :  6.00727e-06
 Reference value :  6.01405e-06
 Reference value :  6.02156e-06
 Reference value :  6.03240e-06
 Reference value :  6.05409e-06
 Reference value :  6.07717e-06
 Reference value :  6.11218e-06
 Reference value :  6.14894e-06
 Reference value :  6.22245e-06
 Reference value :  6.36947e-06
 Reference value :  6.62460e-06
 Reference value :  7.00050e-06
 Reference value :  7.00055e-06
 Reference value :  7.00065e-06
 Reference value :  7.00085e-06
 Reference value :  7.00100e-06
 Reference value :  7.00103e-06
 Reference value :  7.00109e-06
 Reference value :  7.00122e-06
 Reference value :  7.00147e-06
 Reference value :  7.00177e-06
 Reference value :  7.00218e-06
 Reference value :  7.00275e-06
 Reference value :  7.00388e-06
 Reference value :  7.00614e-06
 Reference value :  7.01067e-06
 Reference value :  7.01972e-06
 Reference value :  7.03781e-06
 Reference value :  7.07401e-06
 Reference value :  7.14304e-06
 Reference value :  7.22889e-06
 Reference value :  7.37083e-06
 Reference value :  7.58087e-06
 Reference value :  8.00000e-06
 Reference value :  8.00005e-06
 Reference value :  8.00015e-06
 Reference value :  8.00035e-06
 Reference value :  8.00050e-06
 Reference value :  8.00051e-06
 Reference value :  8.00053e-06
 Reference value :  8.00057e-06
 Reference value :  8.00066e-06
 Reference value :  8.00083e-06
 Reference value :  8.00117e-06
 Reference value :  8.00185e-06
 Reference value :  8.00321e-06
 Reference value :  8.00594e-06
 Reference value :  8.01139e-06
 Reference value :  8.02054e-06
 Reference value :  8.03027e-06
 Reference value :  8.04755e-06
 Reference value :  8.07865e-06
 Reference value :  8.10990e-06
 Reference value :  8.15536e-06
 Reference value :  8.21156e-06
 Reference value :  8.25583e-06
 Reference value :  8.29607e-06
 Reference value :  8.33658e-06
 Reference value :  8.38444e-06
 Reference value :  8.42811e-06
 Reference value :  8.49496e-06
 Reference value :  8.56482e-06
 Reference value :  8.68338e-06
 Reference value :  8.84472e-06
 Reference value :  8.99226e-06
 Reference value :  9.00050e-06
 Reference value :  9.00055e-06
 Reference value :  9.00065e-06
 Reference value :  9.00085e-06
 Reference value :  9.00100e-06
 Reference value :  9.00103e-06
 Reference value :  9.00109e-06
 Reference value :  9.00122e-06
 Reference value :  9.00147e-06
 Reference value :  9.00176e-06
 Reference value :  9.00218e-06
 Reference value :  9.00274e-06
 Reference value :  9.00387e-06
 Reference value :  9.00613e-06
 Reference value :  9.01064e-06
 Reference value :  9.01968e-06
 Reference value :  9.03774e-06
 Reference value :  9.07386e-06
 Reference value :  9.12822e-06
 Reference value :  9.20352e-06
 Reference value :  9.31481e-06
 Reference value :  9.42733e-06
 Reference value :  9.54380e-06
 Reference value :  9.61604e-06
 Reference value :  9.69486e-06
 Reference value :  9.77408e-06
 Reference value :  9.88096e-06
 Reference value :  1.00000e-05
 Reference value :  1.00000e-05
 Reference value :  1.00001e-05
 Reference value :  1.00003e-05
 Reference value :  1.00005e-05
 Reference value :  1.00005e-05
 Reference value :  1.00005e-05
 Reference value :  1.00006e-05
 Reference value :  1.00007e-05
 Reference value :  1.00008e-05
 Reference value :  1.00012e-05
 Reference value :  1.00018e-05
 Reference value :  1.00032e-05
 Reference value :  1.00059e-05
 Reference value :  1.00114e-05
 Reference value :  1.00206e-05
 Reference value :  1.00304e-05
 Reference value :  1.00476e-05
 Reference value :  1.00786e-05
 Reference value :  1.01097e-05
 Reference value :  1.01552e-05
 Reference value :  1.02112e-05
 Reference value :  1.03189e-05
 Reference value :  1.04724e-05
 Reference value :  1.07485e-05
 Reference value :  1.10005e-05
 Reference value :  1.10005e-05
 Reference value :  1.10006e-05
 Reference value :  1.10008e-05
 Reference value :  1.10010e-05
 Reference value :  1.10010e-05
 Reference value :  1.10011e-05
 Reference value :  1.10012e-05
 Reference value :  1.10015e-05
 Reference value :  1.10018e-05
 Reference value :  1.10022e-05
 Reference value :  1.10028e-05
 Reference value :  1.10039e-05
 Reference value :  1.10062e-05
 Reference value :  1.10107e-05
 Reference value :  1.10198e-05
 Reference value :  1.10379e-05
 Reference value :  1.10743e-05
 Reference value :  1.11260e-05
 Reference value :  1.11997e-05
 Reference value :  1.13063e-05
 Reference value :  1.14655e-05
 Reference value :  1.17608e-05
 Reference value :  1.20000e-05
 Reference value :  1.20000e-05
 Reference value :  1.20001e-05
 Reference value :  1.20003e-05
 Reference value :  1.20005e-05
 Reference value :  1.20005e-05
 Reference value :  1.20005e-05
 Reference value :  1.20006e-05
 Reference value :  1.20007e-05
 Reference value :  1.20008e-05
 Reference value :  1.20012e-05
 Reference value :  1.20018e-05
 Reference value :  1.20032e-05
 Reference value :  1.20059e-05
 Reference value :  1.20114e-05
 Reference value :  1.20205e-05
 Reference value :  1.20302e-05
 Reference value :  1.20475e-05
 Reference value :  1.20783e-05
 Reference value :  1.21093e-05
 Reference value :  1.21542e-05
 Reference value :  1.22103e-05
 Reference value :  1.23156e-05
 Reference value :  1.24667e-05
 Reference value :  1.27336e-05
 Reference value :  1.30005e-05
 Reference value :  1.30006e-05
 Reference value :  1.30007e-05
 Reference value :  1.30009e-05
 Reference value :  1.30010e-05
 Reference value :  1.30010e-05
 Reference value :  1.30011e-05
 Reference value :  1.30012e-05
 Reference value :  1.30015e-05
 Reference value :  1.30018e-05
 Reference value :  1.30022e-05
 Reference value :  1.30028e-05
 Reference value :  1.30039e-05
 Reference value :  1.30062e-05
 Reference value :  1.30107e-05
 Reference value :  1.30198e-05
 Reference value :  1.30380e-05
 Reference value :  1.30743e-05
 Reference value :  1.31259e-05
 Reference value :  1.31995e-05
 Reference value :  1.33057e-05
 Reference value :  1.34644e-05
 Reference value :  1.37582e-05
 Reference value :  1.40000e-05
 Reference value :  1.40000e-05
 Reference value :  1.40002e-05
 Reference value :  1.40004e-05
 Reference value :  1.40005e-05
 Reference value :  1.40005e-05
 Reference value :  1.40005e-05
 Reference value :  1.40006e-05
 Reference value :  1.40007e-05
 Reference value :  1.40008e-05
 Reference value :  1.40012e-05
 Reference value :  1.40018e-05
 Reference value :  1.40032e-05
 Reference value :  1.40059e-05
 Reference value :  1.40114e-05
 Reference value :  1.40205e-05
 Reference value :  1.40302e-05
 Reference value :  1.40475e-05
 Reference value :  1.40783e-05
 Reference value :  1.41093e-05
 Reference value :  1.41541e-05
 Reference value :  1.42101e-05
 Reference value :  1.43151e-05
 Reference value :  1.44658e-05
 Reference value :  1.47315e-05
 Reference value :  1.50005e-05
 Reference value :  1.50005e-05
 Reference value :  1.50007e-05
 Reference value :  1.50009e-05
 Reference value :  1.50010e-05
 Reference value :  1.50010e-05
 Reference value :  1.50011e-05
 Reference value :  1.50012e-05
 Reference value :  1.50015e-05
 Reference value :  1.50018e-05
 Reference value :  1.50022e-05
 Reference value :  1.50028e-05
 Reference value :  1.50039e-05
 Reference value :  1.50062e-05
 Reference value :  1.50107e-05
 Reference value :  1.50198e-05
 Reference value :  1.50380e-05
 Reference value :  1.50743e-05
 Reference value :  1.51258e-05
 Reference value :  1.51993e-05
 Reference value :  1.53053e-05
 Reference value :  1.54637e-05
 Reference value :  1.57563e-05
 Reference value :  1.60000e-05
 Reference value :  1.60000e-05
 Reference value :  1.60001e-05
 Reference value :  1.60004e-05
 Reference value :  1.60005e-05
 Reference value :  1.60005e-05
 Reference value :  1.60005e-05
 Reference value :  1.60006e-05
 Reference value :  1.60007e-05
 Reference value :  1.60008e-05
 Reference value :  1.60012e-05
 Reference value :  1.60018e-05
 Reference value :  1.60032e-05
 Reference value :  1.60059e-05
 Reference value :  1.60114e-05
 Reference value :  1.60205e-05
 Reference value :  1.60302e-05
 Reference value :  1.60475e-05
 Reference value :  1.60783e-05
 Reference value :  1.61092e-05
 Reference value :  1.61540e-05
 Reference value :  1.62101e-05
 Reference value :  1.63149e-05
 Reference value :  1.64655e-05
 Reference value :  1.67306e-05
 Reference value :  1.70005e-05
 Reference value :  1.70006e-05
 Reference value :  1.70007e-05
 Reference value :  1.70009e-05
 Reference value :  1.70010e-05
 Reference value :  1.70010e-05
 Reference value :  1.70011e-05
 Reference value :  1.70012e-05
 Reference value :  1.70015e-05
 Reference value :  1.70018e-05
 Reference value :  1.70022e-05
 Reference value :  1.70028e-05
 Reference value :  1.70039e-05
 Reference value :  1.70062e-05
 Reference value :  1.70107e-05
 Reference value :  1.70198e-05
 Reference value :  1.70380e-05
 Reference value :  1.70743e-05
 Reference value :  1.71257e-05
 Reference value :  1.71992e-05
 Reference value :  1.73052e-05
 Reference value :  1.74633e-05
 Reference value :  1.77554e-05
 Reference value :  1.80000e-05
 Reference value :  1.80001e-05
 Reference value :  1.80002e-05
 Reference value :  1.80004e-05
 Reference value :  1.80005e-05
 Reference value :  1.80005e-05
 Reference value :  1.80005e-05
 Reference value :  1.80006e-05
 Reference value :  1.80007e-05
 Reference value :  1.80008e-05
 Reference value :  1.80012e-05
 Reference value :  1.80018e-05
 Reference value :  1.80032e-05
 Reference value :  1.80059e-05
 Reference value :  1.80114e-05
 Reference value :  1.80205e-05
 Reference value :  1.80302e-05
 Reference value :  1.80475e-05
 Reference value :  1.80783e-05
 Reference value :  1.81092e-05
 Reference value :  1.81540e-05
 Reference value :  1.82100e-05
 Reference value :  1.83148e-05
 Reference value :  1.84654e-05
 Reference value :  1.87302e-05
 Reference value :  1.90005e-05
 Reference value :  1.90006e-05
 Reference value :  1.90007e-05
 Reference value :  1.90009e-05
 Reference value :  1.90010e-05
 Reference value :  1.90010e-05
 Reference value :  1.90011e-05
 Reference value :  1.90012e-05
 Reference value :  1.90015e-05
 Reference value :  1.90018e-05
 Reference value :  1.90022e-05
 Reference value :  1.90028e-05
 Reference value :  1.90039e-05
 Reference value :  1.90062e-05
 Reference value :  1.90107e-05
 Reference value :  1.90198e-05
 Reference value :  1.90380e-05
 Reference value :  1.90743e-05
 Reference value :  1.91257e-05
 Reference value :  1.91992e-05
 Reference value :  1.93051e-05
 Reference value :  1.94632e-05
 Reference value :  1.97550e-05
 Reference value :  2.00000e-05
 Reference value :  2.00001e-05
 Reference value :  2.00002e-05
 Reference value :  2.00004e-05
 Reference value :  2.00005e-05
 Reference value :  2.00005e-05
 Reference value :  2.00005e-05
 Reference value :  2.00006e-05
 Reference value :  2.00007e-05
 Reference value :  2.00008e-05
 Reference value :  2.00012e-05
 Reference value :  2.00018e-05
 Reference value :  2.00032e-05
 Reference value :  2.00059e-05
 Reference value :  2.00114e-05
 Reference value :  2.00205e-05
 Reference value :  2.00302e-05
 Reference value :  2.00475e-05
 Reference value :  2.00783e-05
 Reference value :  2.01092e-05
 Reference value :  2.01540e-05
 Reference value :  2.02100e-05
 Reference value :  2.03148e-05
 Reference value :  2.04653e-05
 Reference value :  2.07300e-05
 Reference value :  2.10005e-05
 Reference value :  2.10005e-05
 Reference value :  2.10006e-05
 Reference value :  2.10008e-05
 Reference value :  2.10010e-05
 Reference value :  2.10010e-05
 Reference value :  2.10011e-05
 Reference value :  2.10012e-05
 Reference value :  2.10015e-05
 Reference value :  2.10018e-05
 Reference value :  2.10022e-05
 Reference value :  2.10028e-05
 Reference value :  2.10039e-05
 Reference value :  2.10062e-05
 Reference value :  2.10107e-05
 Reference value :  2.10198e-05
 Reference value :  2.10380e-05
 Reference value :  2.10743e-05
 Reference value :  2.11257e-05
 Reference value :  2.11992e-05
 Reference value :  2.13050e-05
 Reference value :  2.14631e-05
 Reference value :  2.17548e-05
 Reference value :  2.20000e-05
 Reference value :  2.20000e-05
 Reference value :  2.20001e-05
 Reference value :  2.20004e-05
 Reference value :  2.20005e-05
 Reference value :  2.20005e-05
 Reference value :  2.20005e-05
 Reference value :  2.20006e-05
 Reference value :  2.20007e-05
 Reference value :  2.20008e-05
 Reference value :  2.20012e-05
 Reference value :  2.20018e-05
 Reference value :  2.20032e-05
 Reference value :  2.20059e-05
 Reference value :  2.20114e-05
 Reference value :  2.20205e-05
 Reference value :  2.20302e-05
 Reference value :  2.20475e-05
 Reference value :  2.20783e-05
 Reference value :  2.21092e-05
 Reference value :  2.21540e-05
 Reference value :  2.22100e-05
 Reference value :  2.23147e-05
 Reference value :  2.24652e-05
 Reference value :  2.27299e-05
 Reference value :  2.30005e-05
 Reference value :  2.30005e-05
 Reference value :  2.30006e-05
 Reference value :  2.30008e-05
 Reference value :  2.30010e-05
 Reference value :  2.30010e-05
 Reference value :  2.30011e-05
 Reference value :  2.30012e-05
 Reference value :  2.30015e-05
 Reference value :  2.30018e-05
 Reference value :  2.30022e-05
 Reference value :  2.30028e-05
 Reference value :  2.30039e-05
 Reference value :  2.30062e-05
 Reference value :  2.30107e-05
 Reference value :  2.30198e-05
 Reference value :  2.30380e-05
 Reference value :  2.30743e-05
 Reference value :  2.31257e-05
 Reference value :  2.31992e-05
 Reference value :  2.33050e-05
 Reference value :  2.34631e-05
 Reference value :  2.37548e-05
 Reference value :  2.40000e-05
 Reference value :  2.40001e-05
 Reference value :  2.40002e-05
 Reference value :  2.40004e-05
 Reference value :  2.40005e-05
 Reference value :  2.40005e-05
 Reference value :  2.40005e-05
 Reference value :  2.40006e-05
 Reference value :  2.40007e-05
 Reference value :  2.40008e-05
 Reference value :  2.40012e-05
 Reference value :  2.40018e-05
 Reference value :  2.40032e-05
 Reference value :  2.40059e-05
 Reference value :  2.40114e-05
 Reference value :  2.40205e-05
 Reference value :  2.40302e-05
 Reference value :  2.40475e-05
 Reference value :  2.40783e-05
 Reference value :  2.41092e-05
 Reference value :  2.41540e-05
 Reference value :  2.42100e-05
 Reference value :  2.43147e-05
 Reference value :  2.44652e-05
 Reference value :  2.47298e-05
 Reference value :  2.50005e-05
 Reference value :  2.50005e-05
 Reference value :  2.50006e-05
 Reference value :  2.50008e-05
 Reference value :  2.50010e-05
 Reference value :  2.50010e-05
 Reference value :  2.50011e-05
 Reference value :  2.50012e-05
 Reference value :  2.50015e-05
 Reference value :  2.50018e-05
 Reference value :  2.50022e-05
 Reference value :  2.50028e-05
 Reference value :  2.50039e-05
 Reference value :  2.50062e-05
 Reference value :  2.50107e-05
 Reference value :  2.50198e-05
 Reference value :  2.50380e-05
 Reference value :  2.50743e-05
 Reference value :  2.51257e-05
 Reference value :  2.51992e-05
 Reference value :  2.53050e-05
 Reference value :  2.54630e-05
 Reference value :  2.57547e-05
 Reference value :  2.60000e-05
 Reference value :  2.60001e-05
 Reference value :  2.60002e-05
 Reference value :  2.60004e-05
 Reference value :  2.60005e-05
 Reference value :  2.60005e-05
 Reference value :  2.60005e-05
 Reference value :  2.60006e-05
 Reference value :  2.60007e-05
 Reference value :  2.60008e-05
 Reference value :  2.60012e-05
 Reference value :  2.60018e-05
 Reference value :  2.60032e-05
 Reference value :  2.60059e-05
 Reference value :  2.60114e-05
 Reference value :  2.60205e-05
 Reference value :  2.60302e-05
 Reference value :  2.60475e-05
 Reference value :  2.60783e-05
 Reference value :  2.61092e-05
 Reference value :  2.61540e-05
 Reference value :  2.62100e-05
 Reference value :  2.63147e-05
 Reference value :  2.64652e-05
 Reference value :  2.67297e-05
 Reference value :  2.70005e-05
 Reference value :  2.70006e-05
 Reference value :  2.70007e-05
 Reference value :  2.70009e-05
 Reference value :  2.70010e-05
 Reference value :  2.70010e-05
 Reference value :  2.70011e-05
 Reference value :  2.70012e-05
 Reference value :  2.70015e-05
 Reference value :  2.70018e-05
 Reference value :  2.70022e-05
 Reference value :  2.70028e-05
 Reference value :  2.70039e-05
 Reference value :  2.70062e-05
 Reference value :  2.70107e-05
 Reference value :  2.70198e-05
 Reference value :  2.70380e-05
 Reference value :  2.70743e-05
 Reference value :  2.71257e-05
 Reference value :  2.71992e-05
 Reference value :  2.73050e-05
 Reference value :  2.74630e-05
 Reference value :  2.77547e-05
 Reference value :  2.80000e-05
 Reference value :  2.80000e-05
 Reference value :  2.80001e-05
 Reference value :  2.80004e-05
 Reference value :  2.80005e-05
 Reference value :  2.80005e-05
 Reference value :  2.80005e-05
 Reference value :  2.80006e-05
 Reference value :  2.80007e-05
 Reference value :  2.80008e-05
 Reference value :  2.80012e-05
 Reference value :  2.80018e-05
 Reference value :  2.80032e-05
 Reference value :  2.80059e-05
 Reference value :  2.80114e-05
 Reference value :  2.80205e-05
 Reference value :  2.80302e-05
 Reference value :  2.80475e-05
 Reference value :  2.80783e-05
 Reference value :  2.81092e-05
 Reference value :  2.81540e-05
 Reference value :  2.82100e-05
 Reference value :  2.83147e-05
 Reference value :  2.84651e-05
 Reference value :  2.87296e-05
 Reference value :  2.90005e-05
 Reference value :  2.90006e-05
 Reference value :  2.90007e-05
 Reference value :  2.90009e-05
 Reference value :  2.90010e-05
 Reference value :  2.90010e-05
 Reference value :  2.90011e-05
 Reference value :  2.90012e-05
 Reference value :  2.90015e-05
 Reference value :  2.90018e-05
 Reference value :  2.90022e-05
 Reference value :  2.90028e-05
 Reference value :  2.90039e-05
 Reference value :  2.90062e-05
 Reference value :  2.90107e-05
 Reference value :  2.90198e-05
 Reference value :  2.90380e-05
 Reference value :  2.90743e-05
 Reference value :  2.91257e-05
 Reference value :  2.91992e-05
 Reference value :  2.93050e-05
 Reference value :  2.94630e-05
 Reference value :  2.97547e-05
 Reference value :  3.00000e-05
 Reference value :  3.00001e-05
 Reference value :  3.00002e-05
 Reference value :  3.00004e-05
 Reference value :  3.00005e-05
 Reference value :  3.00005e-05
 Reference value :  3.00005e-05
 Reference value :  3.00006e-05
 Reference value :  3.00007e-05
 Reference value :  3.00008e-05
 Reference value :  3.00012e-05
 Reference value :  3.00018e-05
 Reference value :  3.00032e-05
 Reference value :  3.00059e-05
 Reference value :  3.00114e-05
 Reference value :  3.00205e-05
 Reference value :  3.00302e-05
 Reference value :  3.00475e-05
 Reference value :  3.00783e-05
 Reference value :  3.01092e-05
 Reference value :  3.01540e-05
 Reference value :  3.02100e-05
 Reference value :  3.03147e-05
 Reference value :  3.04651e-05
 Reference value :  3.07295e-05
 Reference value :  3.10005e-05
 Reference value :  3.10005e-05
 Reference value :  3.10006e-05
 Reference value :  3.10008e-05
 Reference value :  3.10010e-05
 Reference value :  3.10010e-05
 Reference value :  3.10011e-05
 Reference value :  3.10012e-05
 Reference value :  3.10015e-05
 Reference value :  3.10018e-05
 Reference value :  3.10022e-05
 Reference value :  3.10028e-05
 Reference value :  3.10039e-05
 Reference value :  3.10062e-05
 Reference value :  3.10107e-05
 Reference value :  3.10198e-05
 Reference value :  3.10380e-05
 Reference value :  3.10743e-05
 Reference value :  3.11257e-05
 Reference value :  3.11992e-05
 Reference value :  3.13050e-05
 Reference value :  3.14630e-05
 Reference value :  3.17547e-05
 Reference value :  3.20000e-05
 Reference value :  3.20000e-05
 Reference value :  3.20001e-05
 Reference value :  3.20003e-05
 Reference value :  3.20005e-05
 Reference value :  3.20005e-05
 Reference value :  3.20005e-05
 Reference value :  3.20006e-05
 Reference value :  3.20007e-05
 Reference value :  3.20008e-05
 Reference value :  3.20012e-05
 Reference value :  3.20018e-05
 Reference value :  3.20032e-05
 Reference value :  3.20059e-05
 Reference value :  3.20114e-05
 Reference value :  3.20205e-05
 Reference value :  3.20302e-05
 Reference value :  3.20475e-05
 Reference value :  3.20783e-05
 Reference value :  3.21092e-05
 Reference value :  3.21540e-05
 Reference value :  3.22100e-05
 Reference value :  3.23146e-05
 Reference value :  3.24651e-05
 Reference value :  3.27294e-05
 Reference value :  3.30005e-05
 Reference value :  3.30006e-05
 Reference value :  3.30007e-05
 Reference value :  3.30009e-05
 Reference value :  3.30010e-05
 Reference value :  3.30010e-05
 Reference value :  3.30011e-05
 Reference value :  3.30012e-05
 Reference value :  3.30015e-05
 Reference value :  3.30018e-05
 Reference value :  3.30022e-05
 Reference value :  3.30028e-05
 Reference value :  3.30039e-05
 Reference value :  3.30062e-05
 Reference value :  3.30107e-05
 Reference value :  3.30198e-05
 Reference value :  3.30380e-05
 Reference value :  3.30743e-05
 Reference value :  3.31257e-05
 Reference value :  3.31992e-05
 Reference value :  3.33050e-05
 Reference value :  3.34630e-05
 Reference value :  3.37547e-05
 Reference value :  3.40000e-05
No. of Data Rows : 920
ngspice-44 done
