
Note: Compatibility modes selected: hs a


Circuit: ** sch_path: /home/samantha/cace/sar-adc-using-sky130-pdk/runs/run_2025-09-05_22-34-46/parameters/inl/run_0/sar_output.sch

option SCALE: Scale is set to 1e-06 for instance and model parameters
option SCALE: Scale is set to 1e-06 for instance and model parameters
option SCALE: Scale is set to 1e-06 for instance and model parameters
option SCALE: Scale is set to 1e-06 for instance and model parameters
Doing analysis at TEMP = 27.000000 and TNOM = 27.000000

Using KLU as Direct Linear Solver
Operating point simulation skipped by 'uic',
  now using transient initial conditions.
 Reference value :  1.00000e-12
 Reference value :  1.02386e-12
 Reference value :  1.07158e-12
 Reference value :  1.14191e-12
 Reference value :  1.21992e-12
 Reference value :  1.35800e-12
 Reference value :  1.57249e-12
 Reference value :  1.90215e-12
 Reference value :  2.53062e-12
 Reference value :  3.45812e-12
 Reference value :  4.88207e-12
 Reference value :  6.40381e-12
 Reference value :  8.74790e-12
 Reference value :  1.27868e-11
 Reference value :  1.82881e-11
 Reference value :  2.51887e-11
 Reference value :  3.42471e-11
 Reference value :  4.43126e-11
 Reference value :  6.01917e-11
 Reference value :  7.80853e-11
 Reference value :  1.00000e-10
 Reference value :  1.00421e-10
 Reference value :  1.01263e-10
 Reference value :  1.02948e-10
 Reference value :  1.06280e-10
 Reference value :  1.12946e-10
 Reference value :  1.26277e-10
 Reference value :  1.52939e-10
 Reference value :  1.90330e-10
 Reference value :  2.37966e-10
 Reference value :  3.06040e-10
 Reference value :  4.28746e-10
 Reference value :  6.60244e-10
 Reference value :  9.45768e-10
 Reference value :  1.37814e-09
 Reference value :  1.87031e-09
 Reference value :  2.63634e-09
 Reference value :  3.49891e-09
 Reference value :  4.45059e-09
 Reference value :  5.31901e-09
 Reference value :  6.23586e-09
 Reference value :  7.09489e-09
 Reference value :  7.99641e-09
 Reference value :  9.04590e-09
 Reference value :  1.01511e-08
 Reference value :  1.11377e-08
 Reference value :  1.19931e-08
 Reference value :  1.28813e-08
 Reference value :  1.38727e-08
 Reference value :  1.51605e-08
 Reference value :  1.63348e-08
 Reference value :  1.75662e-08
 Reference value :  1.87999e-08
 Reference value :  2.02890e-08
 Reference value :  2.17520e-08
 Reference value :  2.29606e-08
 Reference value :  2.42939e-08
 Reference value :  2.58348e-08
 Reference value :  2.84446e-08
 Reference value :  3.09977e-08
 Reference value :  3.47636e-08
 Reference value :  3.94057e-08
 Reference value :  4.86898e-08
 Reference value :  6.63721e-08
 Reference value :  9.47102e-08
 Reference value :  1.30867e-07
 Reference value :  1.81988e-07
 Reference value :  2.19351e-07
 Reference value :  2.50100e-07
 Reference value :  2.50110e-07
 Reference value :  2.50130e-07
 Reference value :  2.50170e-07
 Reference value :  2.50200e-07
 Reference value :  2.50201e-07
 Reference value :  2.50202e-07
 Reference value :  2.50204e-07
 Reference value :  2.50208e-07
 Reference value :  2.50216e-07
 Reference value :  2.50232e-07
 Reference value :  2.50265e-07
 Reference value :  2.50331e-07
 Reference value :  2.50414e-07
 Reference value :  2.50579e-07
 Reference value :  2.50745e-07
 Reference value :  2.51077e-07
 Reference value :  2.51464e-07
 Reference value :  2.52140e-07
 Reference value :  2.52795e-07
 Reference value :  2.53526e-07
 Reference value :  2.54495e-07
 Reference value :  2.55498e-07
 Reference value :  2.56526e-07
 Reference value :  2.57717e-07
 Reference value :  2.58797e-07
 Reference value :  2.60121e-07
 Reference value :  2.61353e-07
 Reference value :  2.63011e-07
 Reference value :  2.65892e-07
 Reference value :  2.69852e-07
 Reference value :  2.77644e-07
 Reference value :  2.84332e-07
 Reference value :  2.91573e-07
 Reference value :  3.00016e-07
 Reference value :  3.14535e-07
 Reference value :  3.37847e-07
 Reference value :  3.84472e-07
 Reference value :  4.66826e-07
 Reference value :  5.00000e-07
 Reference value :  5.00010e-07
 Reference value :  5.00030e-07
 Reference value :  5.00070e-07
 Reference value :  5.00100e-07
 Reference value :  5.00101e-07
 Reference value :  5.00102e-07
 Reference value :  5.00104e-07
 Reference value :  5.00108e-07
 Reference value :  5.00116e-07
 Reference value :  5.00133e-07
 Reference value :  5.00166e-07
 Reference value :  5.00232e-07
 Reference value :  5.00364e-07
 Reference value :  5.00562e-07
 Reference value :  5.00958e-07
 Reference value :  5.01468e-07
 Reference value :  5.02005e-07
 Reference value :  5.02766e-07
 Reference value :  5.03572e-07
 Reference value :  5.04320e-07
 Reference value :  5.05132e-07
 Reference value :  5.06131e-07
 Reference value :  5.07176e-07
 Reference value :  5.08402e-07
 Reference value :  5.09764e-07
 Reference value :  5.11619e-07
 Reference value :  5.13520e-07
 Reference value :  5.15477e-07
 Reference value :  5.17410e-07
 Reference value :  5.19723e-07
 Reference value :  5.23968e-07
 Reference value :  5.26998e-07
 Reference value :  5.30563e-07
 Reference value :  5.34330e-07
 Reference value :  5.38302e-07
 Reference value :  5.44495e-07
 Reference value :  5.50308e-07
 Reference value :  5.60230e-07
 Reference value :  5.73374e-07
 Reference value :  5.99662e-07
 Reference value :  6.51184e-07
 Reference value :  7.38528e-07
 Reference value :  7.50100e-07
 Reference value :  7.50110e-07
 Reference value :  7.50130e-07
 Reference value :  7.50170e-07
 Reference value :  7.50200e-07
 Reference value :  7.50201e-07
 Reference value :  7.50202e-07
 Reference value :  7.50204e-07
 Reference value :  7.50208e-07
 Reference value :  7.50216e-07
 Reference value :  7.50233e-07
 Reference value :  7.50266e-07
 Reference value :  7.50333e-07
 Reference value :  7.50467e-07
 Reference value :  7.50644e-07
 Reference value :  7.50914e-07
 Reference value :  7.51453e-07
 Reference value :  7.52099e-07
 Reference value :  7.52799e-07
 Reference value :  7.53529e-07
 Reference value :  7.54426e-07
 Reference value :  7.55524e-07
 Reference value :  7.56676e-07
 Reference value :  7.57707e-07
 Reference value :  7.58806e-07
 Reference value :  7.59801e-07
 Reference value :  7.60851e-07
 Reference value :  7.62085e-07
 Reference value :  7.63384e-07
 Reference value :  7.64954e-07
 Reference value :  7.66881e-07
 Reference value :  7.69514e-07
 Reference value :  7.72595e-07
 Reference value :  7.77490e-07
 Reference value :  7.87280e-07
 Reference value :  8.04451e-07
 Reference value :  8.36340e-07
 Reference value :  8.96028e-07
 Reference value :  1.00000e-06
 Reference value :  1.00001e-06
 Reference value :  1.00003e-06
 Reference value :  1.00007e-06
 Reference value :  1.00010e-06
 Reference value :  1.00010e-06
 Reference value :  1.00010e-06
 Reference value :  1.00010e-06
 Reference value :  1.00011e-06
 Reference value :  1.00012e-06
 Reference value :  1.00013e-06
 Reference value :  1.00017e-06
 Reference value :  1.00023e-06
 Reference value :  1.00036e-06
 Reference value :  1.00056e-06
 Reference value :  1.00096e-06
 Reference value :  1.00147e-06
 Reference value :  1.00201e-06
 Reference value :  1.00276e-06
 Reference value :  1.00346e-06
 Reference value :  1.00420e-06
 Reference value :  1.00499e-06
 Reference value :  1.00587e-06
 Reference value :  1.00691e-06
 Reference value :  1.00768e-06
 Reference value :  1.00855e-06
 Reference value :  1.00939e-06
 Reference value :  1.01026e-06
 Reference value :  1.01143e-06
 Reference value :  1.01268e-06
 Reference value :  1.01518e-06
 Reference value :  1.01755e-06
 Reference value :  1.01942e-06
 Reference value :  1.02149e-06
 Reference value :  1.02435e-06
 Reference value :  1.02664e-06
 Reference value :  1.02866e-06
 Reference value :  1.03014e-06
 Reference value :  1.03157e-06
 Reference value :  1.03322e-06
 Reference value :  1.03488e-06
 Reference value :  1.03684e-06
 Reference value :  1.03987e-06
 Reference value :  1.04309e-06
 Reference value :  1.04952e-06
 Reference value :  1.05934e-06
 Reference value :  1.07646e-06
 Reference value :  1.10723e-06
 Reference value :  1.15833e-06
 Reference value :  1.23313e-06
 Reference value :  1.25010e-06
 Reference value :  1.25011e-06
 Reference value :  1.25013e-06
 Reference value :  1.25017e-06
 Reference value :  1.25020e-06
 Reference value :  1.25020e-06
 Reference value :  1.25020e-06
 Reference value :  1.25020e-06
 Reference value :  1.25021e-06
 Reference value :  1.25022e-06
 Reference value :  1.25023e-06
 Reference value :  1.25027e-06
 Reference value :  1.25033e-06
 Reference value :  1.25047e-06
 Reference value :  1.25064e-06
 Reference value :  1.25091e-06
 Reference value :  1.25145e-06
 Reference value :  1.25210e-06
 Reference value :  1.25288e-06
 Reference value :  1.25358e-06
 Reference value :  1.25455e-06
 Reference value :  1.25561e-06
 Reference value :  1.25652e-06
 Reference value :  1.25760e-06
 Reference value :  1.25872e-06
 Reference value :  1.25987e-06
 Reference value :  1.26137e-06
 Reference value :  1.26391e-06
 Reference value :  1.26735e-06
 Reference value :  1.27248e-06
 Reference value :  1.28274e-06
 Reference value :  1.29892e-06
 Reference value :  1.33106e-06
 Reference value :  1.38300e-06
 Reference value :  1.43041e-06
 Reference value :  1.47392e-06
 Reference value :  1.50000e-06
 Reference value :  1.50001e-06
 Reference value :  1.50003e-06
 Reference value :  1.50007e-06
 Reference value :  1.50010e-06
 Reference value :  1.50010e-06
 Reference value :  1.50010e-06
 Reference value :  1.50010e-06
 Reference value :  1.50011e-06
 Reference value :  1.50012e-06
 Reference value :  1.50013e-06
 Reference value :  1.50017e-06
 Reference value :  1.50023e-06
 Reference value :  1.50036e-06
 Reference value :  1.50056e-06
 Reference value :  1.50095e-06
 Reference value :  1.50146e-06
 Reference value :  1.50200e-06
 Reference value :  1.50275e-06
 Reference value :  1.50344e-06
 Reference value :  1.50417e-06
 Reference value :  1.50501e-06
 Reference value :  1.50593e-06
 Reference value :  1.50691e-06
 Reference value :  1.50791e-06
 Reference value :  1.50963e-06
 Reference value :  1.51120e-06
 Reference value :  1.51316e-06
 Reference value :  1.51475e-06
 Reference value :  1.51645e-06
 Reference value :  1.51872e-06
 Reference value :  1.52105e-06
 Reference value :  1.52496e-06
 Reference value :  1.53014e-06
 Reference value :  1.53825e-06
 Reference value :  1.55114e-06
 Reference value :  1.57407e-06
 Reference value :  1.61737e-06
 Reference value :  1.64996e-06
 Reference value :  1.68926e-06
 Reference value :  1.73780e-06
 Reference value :  1.75010e-06
 Reference value :  1.75011e-06
 Reference value :  1.75013e-06
 Reference value :  1.75017e-06
 Reference value :  1.75020e-06
 Reference value :  1.75020e-06
 Reference value :  1.75020e-06
 Reference value :  1.75020e-06
 Reference value :  1.75021e-06
 Reference value :  1.75022e-06
 Reference value :  1.75023e-06
 Reference value :  1.75027e-06
 Reference value :  1.75033e-06
 Reference value :  1.75047e-06
 Reference value :  1.75064e-06
 Reference value :  1.75091e-06
 Reference value :  1.75145e-06
 Reference value :  1.75210e-06
 Reference value :  1.75288e-06
 Reference value :  1.75358e-06
 Reference value :  1.75454e-06
 Reference value :  1.75561e-06
 Reference value :  1.75653e-06
 Reference value :  1.75762e-06
 Reference value :  1.75853e-06
 Reference value :  1.75951e-06
 Reference value :  1.76064e-06
 Reference value :  1.76189e-06
 Reference value :  1.76337e-06
 Reference value :  1.76497e-06
 Reference value :  1.76740e-06
 Reference value :  1.77001e-06
 Reference value :  1.77436e-06
 Reference value :  1.78306e-06
 Reference value :  1.79610e-06
 Reference value :  1.82160e-06
 Reference value :  1.86461e-06
 Reference value :  1.94072e-06
 Reference value :  2.00000e-06
 Reference value :  2.00001e-06
 Reference value :  2.00003e-06
 Reference value :  2.00007e-06
 Reference value :  2.00010e-06
 Reference value :  2.00010e-06
 Reference value :  2.00010e-06
 Reference value :  2.00010e-06
 Reference value :  2.00011e-06
 Reference value :  2.00012e-06
 Reference value :  2.00013e-06
 Reference value :  2.00017e-06
 Reference value :  2.00023e-06
 Reference value :  2.00036e-06
 Reference value :  2.00056e-06
 Reference value :  2.00095e-06
 Reference value :  2.00146e-06
 Reference value :  2.00200e-06
 Reference value :  2.00275e-06
 Reference value :  2.00345e-06
 Reference value :  2.00418e-06
 Reference value :  2.00498e-06
 Reference value :  2.00586e-06
 Reference value :  2.00661e-06
 Reference value :  2.00746e-06
 Reference value :  2.00819e-06
 Reference value :  2.00904e-06
 Reference value :  2.01011e-06
 Reference value :  2.01122e-06
 Reference value :  2.01324e-06
 Reference value :  2.01537e-06
 Reference value :  2.01761e-06
 Reference value :  2.01983e-06
 Reference value :  2.02192e-06
 Reference value :  2.02420e-06
 Reference value :  2.02601e-06
 Reference value :  2.02743e-06
 Reference value :  2.02896e-06
 Reference value :  2.03069e-06
 Reference value :  2.03255e-06
 Reference value :  2.03461e-06
 Reference value :  2.03760e-06
 Reference value :  2.04127e-06
 Reference value :  2.04500e-06
 Reference value :  2.04790e-06
 Reference value :  2.05045e-06
 Reference value :  2.05308e-06
 Reference value :  2.05570e-06
 Reference value :  2.05849e-06
 Reference value :  2.06317e-06
 Reference value :  2.06886e-06
 Reference value :  2.07890e-06
 Reference value :  2.09260e-06
 Reference value :  2.10670e-06
 Reference value :  2.12710e-06
 Reference value :  2.15048e-06
 Reference value :  2.18705e-06
 Reference value :  2.24080e-06
 Reference value :  2.25010e-06
 Reference value :  2.25011e-06
 Reference value :  2.25013e-06
 Reference value :  2.25017e-06
 Reference value :  2.25020e-06
 Reference value :  2.25020e-06
 Reference value :  2.25020e-06
 Reference value :  2.25020e-06
 Reference value :  2.25021e-06
 Reference value :  2.25022e-06
 Reference value :  2.25023e-06
 Reference value :  2.25027e-06
 Reference value :  2.25033e-06
 Reference value :  2.25047e-06
 Reference value :  2.25064e-06
 Reference value :  2.25091e-06
 Reference value :  2.25145e-06
 Reference value :  2.25210e-06
 Reference value :  2.25288e-06
 Reference value :  2.25358e-06
 Reference value :  2.25454e-06
 Reference value :  2.25561e-06
 Reference value :  2.25661e-06
 Reference value :  2.25770e-06
 Reference value :  2.25881e-06
 Reference value :  2.26038e-06
 Reference value :  2.26246e-06
 Reference value :  2.26502e-06
 Reference value :  2.26892e-06
 Reference value :  2.27555e-06
 Reference value :  2.28652e-06
 Reference value :  2.30475e-06
 Reference value :  2.34123e-06
 Reference value :  2.39771e-06
 Reference value :  2.46116e-06
 Reference value :  2.50000e-06
 Reference value :  2.50001e-06
 Reference value :  2.50003e-06
 Reference value :  2.50007e-06
 Reference value :  2.50010e-06
 Reference value :  2.50010e-06
 Reference value :  2.50010e-06
 Reference value :  2.50010e-06
 Reference value :  2.50011e-06
 Reference value :  2.50012e-06
 Reference value :  2.50013e-06
 Reference value :  2.50017e-06
 Reference value :  2.50023e-06
 Reference value :  2.50036e-06
 Reference value :  2.50055e-06
 Reference value :  2.50091e-06
 Reference value :  2.50141e-06
 Reference value :  2.50194e-06
 Reference value :  2.50269e-06
 Reference value :  2.50338e-06
 Reference value :  2.50409e-06
 Reference value :  2.50487e-06
 Reference value :  2.50575e-06
 Reference value :  2.50669e-06
 Reference value :  2.50793e-06
 Reference value :  2.50945e-06
 Reference value :  2.51166e-06
 Reference value :  2.51317e-06
 Reference value :  2.51482e-06
 Reference value :  2.51648e-06
 Reference value :  2.51877e-06
 Reference value :  2.52128e-06
 Reference value :  2.52550e-06
 Reference value :  2.53150e-06
 Reference value :  2.54115e-06
 Reference value :  2.55993e-06
 Reference value :  2.58949e-06
 Reference value :  2.64400e-06
 Reference value :  2.73753e-06
 Reference value :  2.75010e-06
 Reference value :  2.75011e-06
 Reference value :  2.75013e-06
 Reference value :  2.75017e-06
 Reference value :  2.75020e-06
 Reference value :  2.75020e-06
 Reference value :  2.75020e-06
 Reference value :  2.75020e-06
 Reference value :  2.75021e-06
 Reference value :  2.75022e-06
 Reference value :  2.75023e-06
 Reference value :  2.75027e-06
 Reference value :  2.75033e-06
 Reference value :  2.75047e-06
 Reference value :  2.75064e-06
 Reference value :  2.75091e-06
 Reference value :  2.75145e-06
 Reference value :  2.75210e-06
 Reference value :  2.75287e-06
 Reference value :  2.75358e-06
 Reference value :  2.75455e-06
 Reference value :  2.75561e-06
 Reference value :  2.75658e-06
 Reference value :  2.75748e-06
 Reference value :  2.75844e-06
 Reference value :  2.75954e-06
 Reference value :  2.76080e-06
 Reference value :  2.76330e-06
 Reference value :  2.76642e-06
 Reference value :  2.77101e-06
 Reference value :  2.77932e-06
 Reference value :  2.79440e-06
 Reference value :  2.81962e-06
 Reference value :  2.87004e-06
 Reference value :  2.97089e-06
 Reference value :  3.00000e-06
 Reference value :  3.00001e-06
 Reference value :  3.00003e-06
 Reference value :  3.00007e-06
 Reference value :  3.00010e-06
 Reference value :  3.00010e-06
 Reference value :  3.00010e-06
 Reference value :  3.00010e-06
 Reference value :  3.00011e-06
 Reference value :  3.00012e-06
 Reference value :  3.00013e-06
 Reference value :  3.00017e-06
 Reference value :  3.00023e-06
 Reference value :  3.00036e-06
 Reference value :  3.00055e-06
 Reference value :  3.00091e-06
 Reference value :  3.00141e-06
 Reference value :  3.00194e-06
 Reference value :  3.00269e-06
 Reference value :  3.00338e-06
 Reference value :  3.00409e-06
 Reference value :  3.00487e-06
 Reference value :  3.00574e-06
 Reference value :  3.00666e-06
 Reference value :  3.00762e-06
 Reference value :  3.00843e-06
 Reference value :  3.00934e-06
 Reference value :  3.01050e-06
 Reference value :  3.01172e-06
 Reference value :  3.01403e-06
 Reference value :  3.01619e-06
 Reference value :  3.01900e-06
 Reference value :  3.02129e-06
 Reference value :  3.02336e-06
 Reference value :  3.02481e-06
 Reference value :  3.02635e-06
 Reference value :  3.02792e-06
 Reference value :  3.02954e-06
 Reference value :  3.03139e-06
 Reference value :  3.03463e-06
 Reference value :  3.03757e-06
 Reference value :  3.04344e-06
 Reference value :  3.05245e-06
 Reference value :  3.06631e-06
 Reference value :  3.08682e-06
 Reference value :  3.12783e-06
 Reference value :  3.17982e-06
 Reference value :  3.21754e-06
 Reference value :  3.25010e-06
 Reference value :  3.25011e-06
 Reference value :  3.25013e-06
 Reference value :  3.25017e-06
 Reference value :  3.25020e-06
 Reference value :  3.25020e-06
 Reference value :  3.25020e-06
 Reference value :  3.25020e-06
 Reference value :  3.25021e-06
 Reference value :  3.25022e-06
 Reference value :  3.25023e-06
 Reference value :  3.25027e-06
 Reference value :  3.25033e-06
 Reference value :  3.25047e-06
 Reference value :  3.25064e-06
 Reference value :  3.25091e-06
 Reference value :  3.25145e-06
 Reference value :  3.25210e-06
 Reference value :  3.25287e-06
 Reference value :  3.25358e-06
 Reference value :  3.25455e-06
 Reference value :  3.25561e-06
 Reference value :  3.25650e-06
 Reference value :  3.25747e-06
 Reference value :  3.25845e-06
 Reference value :  3.25981e-06
 Reference value :  3.26122e-06
 Reference value :  3.26387e-06
 Reference value :  3.26713e-06
 Reference value :  3.27231e-06
 Reference value :  3.28268e-06
 Reference value :  3.29863e-06
 Reference value :  3.33032e-06
 Reference value :  3.39371e-06
 Reference value :  3.50000e-06
 Reference value :  3.50001e-06
 Reference value :  3.50003e-06
 Reference value :  3.50007e-06
 Reference value :  3.50010e-06
 Reference value :  3.50010e-06
 Reference value :  3.50010e-06
 Reference value :  3.50010e-06
 Reference value :  3.50011e-06
 Reference value :  3.50012e-06
 Reference value :  3.50013e-06
 Reference value :  3.50017e-06
 Reference value :  3.50023e-06
 Reference value :  3.50036e-06
 Reference value :  3.50055e-06
 Reference value :  3.50091e-06
 Reference value :  3.50141e-06
 Reference value :  3.50194e-06
 Reference value :  3.50269e-06
 Reference value :  3.50337e-06
 Reference value :  3.50409e-06
 Reference value :  3.50490e-06
 Reference value :  3.50579e-06
 Reference value :  3.50679e-06
 Reference value :  3.50791e-06
 Reference value :  3.50964e-06
 Reference value :  3.51110e-06
 Reference value :  3.51275e-06
 Reference value :  3.51447e-06
 Reference value :  3.51626e-06
 Reference value :  3.51804e-06
 Reference value :  3.52065e-06
 Reference value :  3.52342e-06
 Reference value :  3.52835e-06
 Reference value :  3.53563e-06
 Reference value :  3.54784e-06
 Reference value :  3.56969e-06
 Reference value :  3.60641e-06
 Reference value :  3.67342e-06
 Reference value :  3.75010e-06
 Reference value :  3.75011e-06
 Reference value :  3.75013e-06
 Reference value :  3.75017e-06
 Reference value :  3.75020e-06
 Reference value :  3.75020e-06
 Reference value :  3.75020e-06
 Reference value :  3.75020e-06
 Reference value :  3.75021e-06
 Reference value :  3.75022e-06
 Reference value :  3.75023e-06
 Reference value :  3.75027e-06
 Reference value :  3.75033e-06
 Reference value :  3.75047e-06
 Reference value :  3.75064e-06
 Reference value :  3.75091e-06
 Reference value :  3.75145e-06
 Reference value :  3.75210e-06
 Reference value :  3.75288e-06
 Reference value :  3.75358e-06
 Reference value :  3.75454e-06
 Reference value :  3.75561e-06
 Reference value :  3.75651e-06
 Reference value :  3.75749e-06
 Reference value :  3.75842e-06
 Reference value :  3.75944e-06
 Reference value :  3.76062e-06
 Reference value :  3.76298e-06
 Reference value :  3.76610e-06
 Reference value :  3.77060e-06
 Reference value :  3.77848e-06
 Reference value :  3.79424e-06
 Reference value :  3.82426e-06
 Reference value :  3.88428e-06
 Reference value :  4.00000e-06
 Reference value :  4.00001e-06
 Reference value :  4.00003e-06
 Reference value :  4.00007e-06
 Reference value :  4.00010e-06
 Reference value :  4.00010e-06
 Reference value :  4.00010e-06
 Reference value :  4.00010e-06
 Reference value :  4.00011e-06
 Reference value :  4.00012e-06
 Reference value :  4.00013e-06
 Reference value :  4.00017e-06
 Reference value :  4.00023e-06
 Reference value :  4.00036e-06
 Reference value :  4.00055e-06
 Reference value :  4.00091e-06
 Reference value :  4.00141e-06
 Reference value :  4.00194e-06
 Reference value :  4.00269e-06
 Reference value :  4.00337e-06
 Reference value :  4.00409e-06
 Reference value :  4.00488e-06
 Reference value :  4.00575e-06
 Reference value :  4.00657e-06
 Reference value :  4.00743e-06
 Reference value :  4.00840e-06
 Reference value :  4.00935e-06
 Reference value :  4.01035e-06
 Reference value :  4.01180e-06
 Reference value :  4.01329e-06
 Reference value :  4.01576e-06
 Reference value :  4.01845e-06
 Reference value :  4.02085e-06
 Reference value :  4.02343e-06
 Reference value :  4.02534e-06
 Reference value :  4.02717e-06
 Reference value :  4.02881e-06
 Reference value :  4.03057e-06
 Reference value :  4.03267e-06
 Reference value :  4.03527e-06
 Reference value :  4.03843e-06
 Reference value :  4.04351e-06
 Reference value :  4.05063e-06
 Reference value :  4.06218e-06
 Reference value :  4.08069e-06
 Reference value :  4.10374e-06
 Reference value :  4.12895e-06
 Reference value :  4.15315e-06
 Reference value :  4.18954e-06
 Reference value :  4.22705e-06
 Reference value :  4.25010e-06
 Reference value :  4.25011e-06
 Reference value :  4.25013e-06
 Reference value :  4.25017e-06
 Reference value :  4.25020e-06
 Reference value :  4.25020e-06
 Reference value :  4.25020e-06
 Reference value :  4.25020e-06
 Reference value :  4.25021e-06
 Reference value :  4.25022e-06
 Reference value :  4.25023e-06
 Reference value :  4.25027e-06
 Reference value :  4.25033e-06
 Reference value :  4.25042e-06
 Reference value :  4.25058e-06
 Reference value :  4.25077e-06
 Reference value :  4.25109e-06
 Reference value :  4.25172e-06
 Reference value :  4.25234e-06
 Reference value :  4.25304e-06
 Reference value :  4.25378e-06
 Reference value :  4.25472e-06
 Reference value :  4.25557e-06
 Reference value :  4.25652e-06
 Reference value :  4.25747e-06
 Reference value :  4.25845e-06
 Reference value :  4.26009e-06
 Reference value :  4.26171e-06
 Reference value :  4.26438e-06
 Reference value :  4.26789e-06
 Reference value :  4.27369e-06
 Reference value :  4.28530e-06
 Reference value :  4.30852e-06
 Reference value :  4.35495e-06
 Reference value :  4.44783e-06
 Reference value :  4.50000e-06
 Reference value :  4.50001e-06
 Reference value :  4.50003e-06
 Reference value :  4.50007e-06
 Reference value :  4.50010e-06
 Reference value :  4.50010e-06
 Reference value :  4.50010e-06
 Reference value :  4.50010e-06
 Reference value :  4.50011e-06
 Reference value :  4.50012e-06
 Reference value :  4.50013e-06
 Reference value :  4.50017e-06
 Reference value :  4.50023e-06
 Reference value :  4.50036e-06
 Reference value :  4.50062e-06
 Reference value :  4.50109e-06
 Reference value :  4.50174e-06
 Reference value :  4.50246e-06
 Reference value :  4.50308e-06
 Reference value :  4.50385e-06
 Reference value :  4.50467e-06
 Reference value :  4.50555e-06
 Reference value :  4.50642e-06
 Reference value :  4.50745e-06
 Reference value :  4.50873e-06
 Reference value :  4.51035e-06
 Reference value :  4.51155e-06
 Reference value :  4.51294e-06
 Reference value :  4.51456e-06
 Reference value :  4.51624e-06
 Reference value :  4.51799e-06
 Reference value :  4.52151e-06
 Reference value :  4.52854e-06
 Reference value :  4.54216e-06
 Reference value :  4.56939e-06
 Reference value :  4.62386e-06
 Reference value :  4.73280e-06
 Reference value :  4.75010e-06
 Reference value :  4.75011e-06
 Reference value :  4.75013e-06
 Reference value :  4.75017e-06
 Reference value :  4.75020e-06
 Reference value :  4.75020e-06
 Reference value :  4.75020e-06
 Reference value :  4.75020e-06
 Reference value :  4.75021e-06
 Reference value :  4.75022e-06
 Reference value :  4.75023e-06
 Reference value :  4.75027e-06
 Reference value :  4.75033e-06
 Reference value :  4.75042e-06
 Reference value :  4.75058e-06
 Reference value :  4.75077e-06
 Reference value :  4.75108e-06
 Reference value :  4.75171e-06
 Reference value :  4.75233e-06
 Reference value :  4.75303e-06
 Reference value :  4.75377e-06
 Reference value :  4.75471e-06
 Reference value :  4.75554e-06
 Reference value :  4.75647e-06
 Reference value :  4.75729e-06
 Reference value :  4.75819e-06
 Reference value :  4.75919e-06
 Reference value :  4.76033e-06
 Reference value :  4.76262e-06
 Reference value :  4.76558e-06
 Reference value :  4.76978e-06
 Reference value :  4.77688e-06
 Reference value :  4.79108e-06
 Reference value :  4.81947e-06
 Reference value :  4.87626e-06
 Reference value :  4.98984e-06
 Reference value :  5.00000e-06
 Reference value :  5.00001e-06
 Reference value :  5.00003e-06
 Reference value :  5.00007e-06
 Reference value :  5.00010e-06
 Reference value :  5.00010e-06
 Reference value :  5.00010e-06
 Reference value :  5.00010e-06
 Reference value :  5.00011e-06
 Reference value :  5.00012e-06
 Reference value :  5.00013e-06
 Reference value :  5.00017e-06
 Reference value :  5.00023e-06
 Reference value :  5.00036e-06
 Reference value :  5.00062e-06
 Reference value :  5.00109e-06
 Reference value :  5.00174e-06
 Reference value :  5.00246e-06
 Reference value :  5.00309e-06
 Reference value :  5.00386e-06
 Reference value :  5.00482e-06
 Reference value :  5.00568e-06
 Reference value :  5.00649e-06
 Reference value :  5.00735e-06
 Reference value :  5.00814e-06
 Reference value :  5.00900e-06
 Reference value :  5.01017e-06
 Reference value :  5.01140e-06
 Reference value :  5.01384e-06
 Reference value :  5.01640e-06
 Reference value :  5.01954e-06
 Reference value :  5.02293e-06
 Reference value :  5.02644e-06
 Reference value :  5.02896e-06
 Reference value :  5.03132e-06
 Reference value :  5.03399e-06
 Reference value :  5.03662e-06
 Reference value :  5.03928e-06
 Reference value :  5.04316e-06
 Reference value :  5.04764e-06
 Reference value :  5.05405e-06
 Reference value :  5.06312e-06
 Reference value :  5.07446e-06
 Reference value :  5.08631e-06
 Reference value :  5.10490e-06
 Reference value :  5.12509e-06
 Reference value :  5.15626e-06
 Reference value :  5.20613e-06
 Reference value :  5.25010e-06
 Reference value :  5.25011e-06
 Reference value :  5.25013e-06
 Reference value :  5.25017e-06
 Reference value :  5.25020e-06
 Reference value :  5.25020e-06
 Reference value :  5.25020e-06
 Reference value :  5.25020e-06
 Reference value :  5.25021e-06
 Reference value :  5.25022e-06
 Reference value :  5.25023e-06
 Reference value :  5.25027e-06
 Reference value :  5.25033e-06
 Reference value :  5.25042e-06
 Reference value :  5.25058e-06
 Reference value :  5.25076e-06
 Reference value :  5.25108e-06
 Reference value :  5.25172e-06
 Reference value :  5.25234e-06
 Reference value :  5.25304e-06
 Reference value :  5.25378e-06
 Reference value :  5.25473e-06
 Reference value :  5.25576e-06
 Reference value :  5.25652e-06
 Reference value :  5.25740e-06
 Reference value :  5.25836e-06
 Reference value :  5.25951e-06
 Reference value :  5.26072e-06
 Reference value :  5.26315e-06
 Reference value :  5.26625e-06
 Reference value :  5.27080e-06
 Reference value :  5.27950e-06
 Reference value :  5.29690e-06
 Reference value :  5.33171e-06
 Reference value :  5.40132e-06
 Reference value :  5.50000e-06
 Reference value :  5.50001e-06
 Reference value :  5.50003e-06
 Reference value :  5.50007e-06
 Reference value :  5.50010e-06
 Reference value :  5.50010e-06
 Reference value :  5.50010e-06
 Reference value :  5.50010e-06
 Reference value :  5.50011e-06
 Reference value :  5.50012e-06
 Reference value :  5.50013e-06
 Reference value :  5.50017e-06
 Reference value :  5.50023e-06
 Reference value :  5.50036e-06
 Reference value :  5.50062e-06
 Reference value :  5.50109e-06
 Reference value :  5.50174e-06
 Reference value :  5.50246e-06
 Reference value :  5.50308e-06
 Reference value :  5.50385e-06
 Reference value :  5.50481e-06
 Reference value :  5.50576e-06
 Reference value :  5.50670e-06
 Reference value :  5.50785e-06
 Reference value :  5.50920e-06
 Reference value :  5.51083e-06
 Reference value :  5.51226e-06
 Reference value :  5.51360e-06
 Reference value :  5.51508e-06
 Reference value :  5.51674e-06
 Reference value :  5.51845e-06
 Reference value :  5.52187e-06
 Reference value :  5.52674e-06
 Reference value :  5.53638e-06
 Reference value :  5.55502e-06
 Reference value :  5.58847e-06
 Reference value :  5.65537e-06
 Reference value :  5.75010e-06
 Reference value :  5.75011e-06
 Reference value :  5.75013e-06
 Reference value :  5.75017e-06
 Reference value :  5.75020e-06
 Reference value :  5.75020e-06
 Reference value :  5.75020e-06
 Reference value :  5.75020e-06
 Reference value :  5.75021e-06
 Reference value :  5.75022e-06
 Reference value :  5.75023e-06
 Reference value :  5.75027e-06
 Reference value :  5.75033e-06
 Reference value :  5.75041e-06
 Reference value :  5.75058e-06
 Reference value :  5.75077e-06
 Reference value :  5.75108e-06
 Reference value :  5.75170e-06
 Reference value :  5.75233e-06
 Reference value :  5.75303e-06
 Reference value :  5.75376e-06
 Reference value :  5.75470e-06
 Reference value :  5.75573e-06
 Reference value :  5.75649e-06
 Reference value :  5.75737e-06
 Reference value :  5.75836e-06
 Reference value :  5.75929e-06
 Reference value :  5.76064e-06
 Reference value :  5.76205e-06
 Reference value :  5.76487e-06
 Reference value :  5.76864e-06
 Reference value :  5.77618e-06
 Reference value :  5.79125e-06
 Reference value :  5.81812e-06
 Reference value :  5.87186e-06
 Reference value :  5.97935e-06
 Reference value :  6.00000e-06
 Reference value :  6.00001e-06
 Reference value :  6.00003e-06
 Reference value :  6.00007e-06
 Reference value :  6.00010e-06
 Reference value :  6.00010e-06
 Reference value :  6.00010e-06
 Reference value :  6.00010e-06
 Reference value :  6.00011e-06
 Reference value :  6.00012e-06
 Reference value :  6.00013e-06
 Reference value :  6.00017e-06
 Reference value :  6.00023e-06
 Reference value :  6.00036e-06
 Reference value :  6.00062e-06
 Reference value :  6.00109e-06
 Reference value :  6.00174e-06
 Reference value :  6.00246e-06
 Reference value :  6.00309e-06
 Reference value :  6.00385e-06
 Reference value :  6.00482e-06
 Reference value :  6.00571e-06
 Reference value :  6.00666e-06
 Reference value :  6.00758e-06
 Reference value :  6.00857e-06
 Reference value :  6.00958e-06
 Reference value :  6.01082e-06
 Reference value :  6.01259e-06
 Reference value :  6.01490e-06
 Reference value :  6.01896e-06
 Reference value :  6.02378e-06
 Reference value :  6.02713e-06
 Reference value :  6.02996e-06
 Reference value :  6.03265e-06
 Reference value :  6.03541e-06
 Reference value :  6.03824e-06
 Reference value :  6.04151e-06
 Reference value :  6.04485e-06
 Reference value :  6.05070e-06
 Reference value :  6.05708e-06
 Reference value :  6.06709e-06
 Reference value :  6.08117e-06
 Reference value :  6.09967e-06
 Reference value :  6.11842e-06
 Reference value :  6.14095e-06
 Reference value :  6.15565e-06
 Reference value :  6.17076e-06
 Reference value :  6.19172e-06
 Reference value :  6.22332e-06
 Reference value :  6.24674e-06
 Reference value :  6.25010e-06
 Reference value :  6.25011e-06
 Reference value :  6.25013e-06
 Reference value :  6.25017e-06
 Reference value :  6.25020e-06
 Reference value :  6.25020e-06
 Reference value :  6.25020e-06
 Reference value :  6.25020e-06
 Reference value :  6.25021e-06
 Reference value :  6.25022e-06
 Reference value :  6.25023e-06
 Reference value :  6.25027e-06
 Reference value :  6.25033e-06
 Reference value :  6.25041e-06
 Reference value :  6.25058e-06
 Reference value :  6.25076e-06
 Reference value :  6.25106e-06
 Reference value :  6.25165e-06
 Reference value :  6.25228e-06
 Reference value :  6.25298e-06
 Reference value :  6.25371e-06
 Reference value :  6.25463e-06
 Reference value :  6.25565e-06
 Reference value :  6.25691e-06
 Reference value :  6.25800e-06
 Reference value :  6.25912e-06
 Reference value :  6.26036e-06
 Reference value :  6.26213e-06
 Reference value :  6.26425e-06
 Reference value :  6.26805e-06
 Reference value :  6.27409e-06
 Reference value :  6.28469e-06
 Reference value :  6.30459e-06
 Reference value :  6.34439e-06
 Reference value :  6.42399e-06
 Reference value :  6.50000e-06
 Reference value :  6.50001e-06
 Reference value :  6.50003e-06
 Reference value :  6.50007e-06
 Reference value :  6.50010e-06
 Reference value :  6.50010e-06
 Reference value :  6.50010e-06
 Reference value :  6.50010e-06
 Reference value :  6.50011e-06
 Reference value :  6.50012e-06
 Reference value :  6.50013e-06
 Reference value :  6.50017e-06
 Reference value :  6.50023e-06
 Reference value :  6.50036e-06
 Reference value :  6.50062e-06
 Reference value :  6.50109e-06
 Reference value :  6.50174e-06
 Reference value :  6.50246e-06
 Reference value :  6.50308e-06
 Reference value :  6.50385e-06
 Reference value :  6.50480e-06
 Reference value :  6.50576e-06
 Reference value :  6.50669e-06
 Reference value :  6.50782e-06
 Reference value :  6.50898e-06
 Reference value :  6.51100e-06
 Reference value :  6.51288e-06
 Reference value :  6.51450e-06
 Reference value :  6.51622e-06
 Reference value :  6.51861e-06
 Reference value :  6.52089e-06
 Reference value :  6.52510e-06
 Reference value :  6.53078e-06
 Reference value :  6.54029e-06
 Reference value :  6.55597e-06
 Reference value :  6.58375e-06
 Reference value :  6.63195e-06
 Reference value :  6.72063e-06
 Reference value :  6.75010e-06
 Reference value :  6.75011e-06
 Reference value :  6.75013e-06
 Reference value :  6.75017e-06
 Reference value :  6.75020e-06
 Reference value :  6.75020e-06
 Reference value :  6.75020e-06
 Reference value :  6.75020e-06
 Reference value :  6.75021e-06
 Reference value :  6.75022e-06
 Reference value :  6.75023e-06
 Reference value :  6.75027e-06
 Reference value :  6.75033e-06
 Reference value :  6.75041e-06
 Reference value :  6.75058e-06
 Reference value :  6.75080e-06
 Reference value :  6.75107e-06
 Reference value :  6.75163e-06
 Reference value :  6.75225e-06
 Reference value :  6.75292e-06
 Reference value :  6.75365e-06
 Reference value :  6.75457e-06
 Reference value :  6.75558e-06
 Reference value :  6.75681e-06
 Reference value :  6.75778e-06
 Reference value :  6.75883e-06
 Reference value :  6.75987e-06
 Reference value :  6.76097e-06
 Reference value :  6.76218e-06
 Reference value :  6.76355e-06
 Reference value :  6.76503e-06
 Reference value :  6.76752e-06
 Reference value :  6.77020e-06
 Reference value :  6.77437e-06
 Reference value :  6.78089e-06
 Reference value :  6.79394e-06
 Reference value :  6.81482e-06
 Reference value :  6.85657e-06
 Reference value :  6.94009e-06
 Reference value :  7.00000e-06
 Reference value :  7.00001e-06
 Reference value :  7.00003e-06
 Reference value :  7.00007e-06
 Reference value :  7.00010e-06
 Reference value :  7.00010e-06
 Reference value :  7.00010e-06
 Reference value :  7.00010e-06
 Reference value :  7.00011e-06
 Reference value :  7.00012e-06
 Reference value :  7.00013e-06
 Reference value :  7.00017e-06
 Reference value :  7.00023e-06
 Reference value :  7.00036e-06
 Reference value :  7.00062e-06
 Reference value :  7.00109e-06
 Reference value :  7.00174e-06
 Reference value :  7.00246e-06
 Reference value :  7.00308e-06
 Reference value :  7.00385e-06
 Reference value :  7.00481e-06
 Reference value :  7.00571e-06
 Reference value :  7.00665e-06
 Reference value :  7.00738e-06
 Reference value :  7.00823e-06
 Reference value :  7.00909e-06
 Reference value :  7.00995e-06
 Reference value :  7.01104e-06
 Reference value :  7.01222e-06
 Reference value :  7.01456e-06
 Reference value :  7.01757e-06
 Reference value :  7.01961e-06
 Reference value :  7.02192e-06
 Reference value :  7.02387e-06
 Reference value :  7.02613e-06
 Reference value :  7.02796e-06
 Reference value :  7.02989e-06
 Reference value :  7.03162e-06
 Reference value :  7.03344e-06
 Reference value :  7.03570e-06
 Reference value :  7.03799e-06
 Reference value :  7.04131e-06
 Reference value :  7.04573e-06
 Reference value :  7.05101e-06
 Reference value :  7.05589e-06
 Reference value :  7.06094e-06
 Reference value :  7.06702e-06
 Reference value :  7.07531e-06
 Reference value :  7.08813e-06
 Reference value :  7.10080e-06
 Reference value :  7.11412e-06
 Reference value :  7.13743e-06
 Reference value :  7.18406e-06
 Reference value :  7.24444e-06
 Reference value :  7.25010e-06
 Reference value :  7.25011e-06
 Reference value :  7.25013e-06
 Reference value :  7.25017e-06
 Reference value :  7.25020e-06
 Reference value :  7.25020e-06
 Reference value :  7.25020e-06
 Reference value :  7.25020e-06
 Reference value :  7.25021e-06
 Reference value :  7.25022e-06
 Reference value :  7.25023e-06
 Reference value :  7.25027e-06
 Reference value :  7.25033e-06
 Reference value :  7.25042e-06
 Reference value :  7.25059e-06
 Reference value :  7.25077e-06
 Reference value :  7.25107e-06
 Reference value :  7.25167e-06
 Reference value :  7.25230e-06
 Reference value :  7.25299e-06
 Reference value :  7.25372e-06
 Reference value :  7.25465e-06
 Reference value :  7.25566e-06
 Reference value :  7.25662e-06
 Reference value :  7.25772e-06
 Reference value :  7.25884e-06
 Reference value :  7.25994e-06
 Reference value :  7.26169e-06
 Reference value :  7.26365e-06
 Reference value :  7.26728e-06
 Reference value :  7.27234e-06
 Reference value :  7.28247e-06
 Reference value :  7.30095e-06
 Reference value :  7.33612e-06
 Reference value :  7.40646e-06
 Reference value :  7.50000e-06
 Reference value :  7.50001e-06
 Reference value :  7.50003e-06
 Reference value :  7.50007e-06
 Reference value :  7.50010e-06
 Reference value :  7.50010e-06
 Reference value :  7.50010e-06
 Reference value :  7.50010e-06
 Reference value :  7.50011e-06
 Reference value :  7.50012e-06
 Reference value :  7.50013e-06
 Reference value :  7.50017e-06
 Reference value :  7.50023e-06
 Reference value :  7.50036e-06
 Reference value :  7.50062e-06
 Reference value :  7.50109e-06
 Reference value :  7.50171e-06
 Reference value :  7.50245e-06
 Reference value :  7.50308e-06
 Reference value :  7.50385e-06
 Reference value :  7.50479e-06
 Reference value :  7.50576e-06
 Reference value :  7.50668e-06
 Reference value :  7.50785e-06
 Reference value :  7.50906e-06
 Reference value :  7.51092e-06
 Reference value :  7.51293e-06
 Reference value :  7.51464e-06
 Reference value :  7.51644e-06
 Reference value :  7.51877e-06
 Reference value :  7.52117e-06
 Reference value :  7.52528e-06
 Reference value :  7.53093e-06
 Reference value :  7.54033e-06
 Reference value :  7.55648e-06
 Reference value :  7.58238e-06
 Reference value :  7.63036e-06
 Reference value :  7.71677e-06
 Reference value :  7.75010e-06
 Reference value :  7.75011e-06
 Reference value :  7.75013e-06
 Reference value :  7.75017e-06
 Reference value :  7.75020e-06
 Reference value :  7.75020e-06
 Reference value :  7.75020e-06
 Reference value :  7.75020e-06
 Reference value :  7.75021e-06
 Reference value :  7.75022e-06
 Reference value :  7.75023e-06
 Reference value :  7.75027e-06
 Reference value :  7.75033e-06
 Reference value :  7.75042e-06
 Reference value :  7.75059e-06
 Reference value :  7.75082e-06
 Reference value :  7.75109e-06
 Reference value :  7.75165e-06
 Reference value :  7.75226e-06
 Reference value :  7.75292e-06
 Reference value :  7.75365e-06
 Reference value :  7.75457e-06
 Reference value :  7.75558e-06
 Reference value :  7.75658e-06
 Reference value :  7.75763e-06
 Reference value :  7.75858e-06
 Reference value :  7.75957e-06
 Reference value :  7.76064e-06
 Reference value :  7.76189e-06
 Reference value :  7.76437e-06
 Reference value :  7.76855e-06
 Reference value :  7.77499e-06
 Reference value :  7.78788e-06
 Reference value :  7.81366e-06
 Reference value :  7.86522e-06
 Reference value :  7.96833e-06
 Reference value :  8.00000e-06
 Reference value :  8.00001e-06
 Reference value :  8.00003e-06
 Reference value :  8.00007e-06
 Reference value :  8.00010e-06
 Reference value :  8.00010e-06
 Reference value :  8.00010e-06
 Reference value :  8.00010e-06
 Reference value :  8.00011e-06
 Reference value :  8.00012e-06
 Reference value :  8.00013e-06
 Reference value :  8.00017e-06
 Reference value :  8.00023e-06
 Reference value :  8.00036e-06
 Reference value :  8.00062e-06
 Reference value :  8.00109e-06
 Reference value :  8.00171e-06
 Reference value :  8.00245e-06
 Reference value :  8.00308e-06
 Reference value :  8.00385e-06
 Reference value :  8.00482e-06
 Reference value :  8.00575e-06
 Reference value :  8.00670e-06
 Reference value :  8.00756e-06
 Reference value :  8.00851e-06
 Reference value :  8.00954e-06
 Reference value :  8.01070e-06
 Reference value :  8.01243e-06
 Reference value :  8.01396e-06
 Reference value :  8.01557e-06
 Reference value :  8.01723e-06
 Reference value :  8.01905e-06
 Reference value :  8.02267e-06
 Reference value :  8.02810e-06
 Reference value :  8.03698e-06
 Reference value :  8.05472e-06
 Reference value :  8.09020e-06
 Reference value :  8.16117e-06
 Reference value :  8.25010e-06
 Reference value :  8.25011e-06
 Reference value :  8.25013e-06
 Reference value :  8.25017e-06
 Reference value :  8.25020e-06
 Reference value :  8.25020e-06
 Reference value :  8.25020e-06
 Reference value :  8.25020e-06
 Reference value :  8.25021e-06
 Reference value :  8.25022e-06
 Reference value :  8.25023e-06
 Reference value :  8.25027e-06
 Reference value :  8.25033e-06
 Reference value :  8.25047e-06
 Reference value :  8.25064e-06
 Reference value :  8.25085e-06
 Reference value :  8.25127e-06
 Reference value :  8.25193e-06
 Reference value :  8.25261e-06
 Reference value :  8.25331e-06
 Reference value :  8.25422e-06
 Reference value :  8.25545e-06
 Reference value :  8.25660e-06
 Reference value :  8.25789e-06
 Reference value :  8.25953e-06
 Reference value :  8.26158e-06
 Reference value :  8.26424e-06
 Reference value :  8.26765e-06
 Reference value :  8.27257e-06
 Reference value :  8.28243e-06
 Reference value :  8.29636e-06
 Reference value :  8.32421e-06
 Reference value :  8.37991e-06
 Reference value :  8.48508e-06
 Reference value :  8.50000e-06
No. of Data Rows : 1387
ngspice-44 done
