
Note: Compatibility modes selected: hs a


Circuit: ** sch_path: /home/ece/cace/sar-adc-using-sky130-pdk/runs/run_2025-09-13_01-19-26/parameters/dnl/run_4/sar_output_dnl.sch

option SCALE: Scale is set to 1e-06 for instance and model parameters
option SCALE: Scale is set to 1e-06 for instance and model parameters
option SCALE: Scale is set to 1e-06 for instance and model parameters
option SCALE: Scale is set to 1e-06 for instance and model parameters
Doing analysis at TEMP = 27.000000 and TNOM = 27.000000

Using KLU as Direct Linear Solver
Operating point simulation skipped by 'uic',
  now using transient initial conditions.
 Reference value :  1.00000e-12
 Reference value :  1.08400e-12
 Reference value :  1.71958e-12
 Reference value :  4.49759e-12
 Reference value :  9.50562e-12
 Reference value :  3.19886e-11
 Reference value :  1.00000e-10
 Reference value :  1.33931e-10
 Reference value :  6.61982e-10
 Reference value :  1.37823e-09
 Reference value :  3.32939e-09
 Reference value :  5.05404e-09
 Reference value :  7.08683e-09
 Reference value :  9.07875e-09
 Reference value :  1.17639e-08
 Reference value :  1.59423e-08
 Reference value :  1.78031e-08
 Reference value :  2.42966e-08
 Reference value :  3.03535e-08
 Reference value :  4.55888e-08
 Reference value :  1.04443e-07
 Reference value :  1.34666e-07
 Reference value :  1.58314e-07
 Reference value :  1.68403e-07
 Reference value :  1.91739e-07
 Reference value :  2.01209e-07
 Reference value :  2.46911e-07
 Reference value :  2.50170e-07
 Reference value :  2.50252e-07
 Reference value :  2.50655e-07
 Reference value :  2.51640e-07
 Reference value :  2.53429e-07
 Reference value :  2.53964e-07
 Reference value :  2.55197e-07
 Reference value :  2.59125e-07
 Reference value :  2.80364e-07
 Reference value :  5.00000e-07
 Reference value :  5.00100e-07
 Reference value :  5.00156e-07
 Reference value :  5.00500e-07
 Reference value :  5.01286e-07
 Reference value :  5.02180e-07
 Reference value :  5.03934e-07
 Reference value :  5.07961e-07
 Reference value :  5.12025e-07
 Reference value :  5.15246e-07
 Reference value :  5.21536e-07
 Reference value :  5.54402e-07
 Reference value :  7.50100e-07
 Reference value :  7.50170e-07
 Reference value :  7.50255e-07
 Reference value :  7.50684e-07
 Reference value :  7.51856e-07
 Reference value :  7.53776e-07
 Reference value :  7.55085e-07
 Reference value :  7.57610e-07
 Reference value :  7.60805e-07
 Reference value :  7.89530e-07
 Reference value :  1.00001e-06
 Reference value :  1.00010e-06
 Reference value :  1.00022e-06
 Reference value :  1.00128e-06
 Reference value :  1.00268e-06
 Reference value :  1.00442e-06
 Reference value :  1.00557e-06
 Reference value :  1.00670e-06
 Reference value :  1.00973e-06
 Reference value :  1.01172e-06
 Reference value :  1.01368e-06
 Reference value :  1.01646e-06
 Reference value :  1.01854e-06
 Reference value :  1.02310e-06
 Reference value :  1.05684e-06
 Reference value :  1.19456e-06
 Reference value :  1.25013e-06
 Reference value :  1.25022e-06
 Reference value :  1.25044e-06
 Reference value :  1.25138e-06
 Reference value :  1.25303e-06
 Reference value :  1.25438e-06
 Reference value :  1.25665e-06
 Reference value :  1.26148e-06
 Reference value :  1.27451e-06
 Reference value :  1.28122e-06
 Reference value :  1.29016e-06
 Reference value :  1.34151e-06
 Reference value :  1.41326e-06
 Reference value :  1.45769e-06
 Reference value :  1.46651e-06
 Reference value :  1.48423e-06
 Reference value :  1.50003e-06
 Reference value :  1.50011e-06
 Reference value :  1.50022e-06
 Reference value :  1.50083e-06
 Reference value :  1.50176e-06
 Reference value :  1.50266e-06
 Reference value :  1.50485e-06
 Reference value :  1.50753e-06
 Reference value :  1.50917e-06
 Reference value :  1.51231e-06
 Reference value :  1.57922e-06
 Reference value :  1.75013e-06
 Reference value :  1.75022e-06
 Reference value :  1.75044e-06
 Reference value :  1.75094e-06
 Reference value :  1.75185e-06
 Reference value :  1.75376e-06
 Reference value :  1.75506e-06
 Reference value :  1.75672e-06
 Reference value :  1.75843e-06
 Reference value :  1.76217e-06
 Reference value :  1.78843e-06
 Reference value :  1.93615e-06
 Reference value :  2.00007e-06
 Reference value :  2.00012e-06
 Reference value :  2.00034e-06
 Reference value :  2.00128e-06
 Reference value :  2.00219e-06
 Reference value :  2.00330e-06
 Reference value :  2.00443e-06
 Reference value :  2.00557e-06
 Reference value :  2.00670e-06
 Reference value :  2.00972e-06
 Reference value :  2.01170e-06
 Reference value :  2.01367e-06
 Reference value :  2.01547e-06
 Reference value :  2.01868e-06
 Reference value :  2.02327e-06
 Reference value :  2.06508e-06
 Reference value :  2.07565e-06
 Reference value :  2.09059e-06
 Reference value :  2.11208e-06
 Reference value :  2.24232e-06
 Reference value :  2.25020e-06
 Reference value :  2.25044e-06
 Reference value :  2.25138e-06
 Reference value :  2.25378e-06
 Reference value :  2.25571e-06
 Reference value :  2.26144e-06
 Reference value :  2.28466e-06
 Reference value :  2.41299e-06
 Reference value :  2.50003e-06
 Reference value :  2.50011e-06
 Reference value :  2.50022e-06
 Reference value :  2.50083e-06
 Reference value :  2.50176e-06
 Reference value :  2.50268e-06
 Reference value :  2.50323e-06
 Reference value :  2.50442e-06
 Reference value :  2.50616e-06
 Reference value :  2.50818e-06
 Reference value :  2.51036e-06
 Reference value :  2.51551e-06
 Reference value :  2.57781e-06
 Reference value :  2.75011e-06
 Reference value :  2.75021e-06
 Reference value :  2.75044e-06
 Reference value :  2.75138e-06
 Reference value :  2.75302e-06
 Reference value :  2.75440e-06
 Reference value :  2.75672e-06
 Reference value :  2.76144e-06
 Reference value :  2.80638e-06
 Reference value :  3.00001e-06
 Reference value :  3.00010e-06
 Reference value :  3.00016e-06
 Reference value :  3.00050e-06
 Reference value :  3.00128e-06
 Reference value :  3.00219e-06
 Reference value :  3.00329e-06
 Reference value :  3.00441e-06
 Reference value :  3.00557e-06
 Reference value :  3.00671e-06
 Reference value :  3.00999e-06
 Reference value :  3.01280e-06
 Reference value :  3.01493e-06
 Reference value :  3.01707e-06
 Reference value :  3.01938e-06
 Reference value :  3.02610e-06
 Reference value :  3.05880e-06
 Reference value :  3.14075e-06
 Reference value :  3.25017e-06
 Reference value :  3.25026e-06
 Reference value :  3.25068e-06
 Reference value :  3.25138e-06
 Reference value :  3.25236e-06
 Reference value :  3.25378e-06
 Reference value :  3.25505e-06
 Reference value :  3.25668e-06
 Reference value :  3.26146e-06
 Reference value :  3.30617e-06
 Reference value :  3.50001e-06
 Reference value :  3.50010e-06
 Reference value :  3.50016e-06
 Reference value :  3.50050e-06
 Reference value :  3.50128e-06
 Reference value :  3.50219e-06
 Reference value :  3.50323e-06
 Reference value :  3.50443e-06
 Reference value :  3.50617e-06
 Reference value :  3.50819e-06
 Reference value :  3.51037e-06
 Reference value :  3.51550e-06
 Reference value :  3.57822e-06
 Reference value :  3.75011e-06
 Reference value :  3.75017e-06
 Reference value :  3.75021e-06
 Reference value :  3.75026e-06
 Reference value :  3.75044e-06
 Reference value :  3.75138e-06
 Reference value :  3.75302e-06
 Reference value :  3.75440e-06
 Reference value :  3.75758e-06
 Reference value :  3.78428e-06
 Reference value :  4.00001e-06
 Reference value :  4.00011e-06
 Reference value :  4.00034e-06
 Reference value :  4.00176e-06
 Reference value :  4.00391e-06
 Reference value :  4.00557e-06
 Reference value :  4.00757e-06
 Reference value :  4.01143e-06
 Reference value :  4.01389e-06
 Reference value :  4.01707e-06
 Reference value :  4.02105e-06
 Reference value :  4.03066e-06
 Reference value :  4.04159e-06
 Reference value :  4.05292e-06
 Reference value :  4.05677e-06
 Reference value :  4.07224e-06
 Reference value :  4.11008e-06
 Reference value :  4.25011e-06
 Reference value :  4.25021e-06
 Reference value :  4.25044e-06
 Reference value :  4.25138e-06
 Reference value :  4.25302e-06
 Reference value :  4.25509e-06
 Reference value :  4.25787e-06
 Reference value :  4.27300e-06
 Reference value :  4.40389e-06
 Reference value :  4.50007e-06
 Reference value :  4.50012e-06
 Reference value :  4.50034e-06
 Reference value :  4.50129e-06
 Reference value :  4.50218e-06
 Reference value :  4.50395e-06
 Reference value :  4.50554e-06
 Reference value :  4.50734e-06
 Reference value :  4.50903e-06
 Reference value :  4.51241e-06
 Reference value :  4.52890e-06
 Reference value :  4.65954e-06
 Reference value :  4.75013e-06
 Reference value :  4.75021e-06
 Reference value :  4.75032e-06
 Reference value :  4.75094e-06
 Reference value :  4.75185e-06
 Reference value :  4.75376e-06
 Reference value :  4.75505e-06
 Reference value :  4.75757e-06
 Reference value :  4.75933e-06
 Reference value :  4.76831e-06
 Reference value :  4.84847e-06
 Reference value :  5.00001e-06
 Reference value :  5.00010e-06
 Reference value :  5.00016e-06
 Reference value :  5.00050e-06
 Reference value :  5.00128e-06
 Reference value :  5.00219e-06
 Reference value :  5.00329e-06
 Reference value :  5.00441e-06
 Reference value :  5.00556e-06
 Reference value :  5.00609e-06
 Reference value :  5.00843e-06
 Reference value :  5.01071e-06
 Reference value :  5.01285e-06
 Reference value :  5.01368e-06
 Reference value :  5.01544e-06
 Reference value :  5.01740e-06
 Reference value :  5.01958e-06
 Reference value :  5.02292e-06
 Reference value :  5.03023e-06
 Reference value :  5.03922e-06
 Reference value :  5.04734e-06
 Reference value :  5.06801e-06
 Reference value :  5.09249e-06
 Reference value :  5.12072e-06
 Reference value :  5.25010e-06
 Reference value :  5.25017e-06
 Reference value :  5.25026e-06
 Reference value :  5.25068e-06
 Reference value :  5.25138e-06
 Reference value :  5.25302e-06
 Reference value :  5.25436e-06
 Reference value :  5.25661e-06
 Reference value :  5.26136e-06
 Reference value :  5.27230e-06
 Reference value :  5.30453e-06
 Reference value :  5.40594e-06
 Reference value :  5.50001e-06
 Reference value :  5.50007e-06
 Reference value :  5.50011e-06
 Reference value :  5.50016e-06
 Reference value :  5.50034e-06
 Reference value :  5.50129e-06
 Reference value :  5.50218e-06
 Reference value :  5.50395e-06
 Reference value :  5.50553e-06
 Reference value :  5.50734e-06
 Reference value :  5.50903e-06
 Reference value :  5.51119e-06
 Reference value :  5.51955e-06
 Reference value :  5.75010e-06
 Reference value :  5.75020e-06
 Reference value :  5.75032e-06
 Reference value :  5.75138e-06
 Reference value :  5.75376e-06
 Reference value :  5.75576e-06
 Reference value :  5.75842e-06
 Reference value :  5.77522e-06
 Reference value :  6.00001e-06
 Reference value :  6.00011e-06
 Reference value :  6.00022e-06
 Reference value :  6.00083e-06
 Reference value :  6.00176e-06
 Reference value :  6.00329e-06
 Reference value :  6.00441e-06
 Reference value :  6.00556e-06
 Reference value :  6.00756e-06
 Reference value :  6.01071e-06
 Reference value :  6.01368e-06
 Reference value :  6.01756e-06
 Reference value :  6.02177e-06
 Reference value :  6.02911e-06
 Reference value :  6.03819e-06
 Reference value :  6.06571e-06
 Reference value :  6.09448e-06
 Reference value :  6.17784e-06
 Reference value :  6.25013e-06
 Reference value :  6.25026e-06
 Reference value :  6.25094e-06
 Reference value :  6.25185e-06
 Reference value :  6.25378e-06
 Reference value :  6.25569e-06
 Reference value :  6.25916e-06
 Reference value :  6.28401e-06
 Reference value :  6.50000e-06
 Reference value :  6.50007e-06
 Reference value :  6.50012e-06
 Reference value :  6.50022e-06
 Reference value :  6.50050e-06
 Reference value :  6.50128e-06
 Reference value :  6.50219e-06
 Reference value :  6.50323e-06
 Reference value :  6.50442e-06
 Reference value :  6.50616e-06
 Reference value :  6.50818e-06
 Reference value :  6.51036e-06
 Reference value :  6.51289e-06
 Reference value :  6.54482e-06
 Reference value :  6.75011e-06
 Reference value :  6.75020e-06
 Reference value :  6.75032e-06
 Reference value :  6.75094e-06
 Reference value :  6.75185e-06
 Reference value :  6.75302e-06
 Reference value :  6.75439e-06
 Reference value :  6.75671e-06
 Reference value :  6.76547e-06
 Reference value :  6.83996e-06
 Reference value :  7.00003e-06
 Reference value :  7.00011e-06
 Reference value :  7.00022e-06
 Reference value :  7.00128e-06
 Reference value :  7.00219e-06
 Reference value :  7.00329e-06
 Reference value :  7.00440e-06
 Reference value :  7.00557e-06
 Reference value :  7.00671e-06
 Reference value :  7.00999e-06
 Reference value :  7.01280e-06
 Reference value :  7.01492e-06
 Reference value :  7.01706e-06
 Reference value :  7.02105e-06
 Reference value :  7.03765e-06
 Reference value :  7.04609e-06
 Reference value :  7.05736e-06
 Reference value :  7.08255e-06
 Reference value :  7.15118e-06
 Reference value :  7.25011e-06
 Reference value :  7.25020e-06
 Reference value :  7.25026e-06
 Reference value :  7.25069e-06
 Reference value :  7.25138e-06
 Reference value :  7.25302e-06
 Reference value :  7.25440e-06
 Reference value :  7.25675e-06
 Reference value :  7.26184e-06
 Reference value :  7.28459e-06
 Reference value :  7.40074e-06
 Reference value :  7.50003e-06
 Reference value :  7.50011e-06
 Reference value :  7.50016e-06
 Reference value :  7.50050e-06
 Reference value :  7.50129e-06
 Reference value :  7.50218e-06
 Reference value :  7.50332e-06
 Reference value :  7.50473e-06
 Reference value :  7.50657e-06
 Reference value :  7.50817e-06
 Reference value :  7.51003e-06
 Reference value :  7.51485e-06
 Reference value :  7.58501e-06
 Reference value :  7.75013e-06
 Reference value :  7.75022e-06
 Reference value :  7.75068e-06
 Reference value :  7.75138e-06
 Reference value :  7.75302e-06
 Reference value :  7.75438e-06
 Reference value :  7.75576e-06
 Reference value :  7.75757e-06
 Reference value :  7.75933e-06
 Reference value :  7.76483e-06
 Reference value :  7.80735e-06
 Reference value :  8.00003e-06
 Reference value :  8.00016e-06
 Reference value :  8.00083e-06
 Reference value :  8.00176e-06
 Reference value :  8.00219e-06
 Reference value :  8.00329e-06
 Reference value :  8.00441e-06
 Reference value :  8.00556e-06
 Reference value :  8.00609e-06
 Reference value :  8.00756e-06
 Reference value :  8.00927e-06
 Reference value :  8.00997e-06
 Reference value :  8.01180e-06
 Reference value :  8.01615e-06
 Reference value :  8.02348e-06
 Reference value :  8.04281e-06
 Reference value :  8.10348e-06
 Reference value :  8.18873e-06
 Reference value :  8.21618e-06
 Reference value :  8.25011e-06
 Reference value :  8.25017e-06
 Reference value :  8.25022e-06
 Reference value :  8.25032e-06
 Reference value :  8.25070e-06
 Reference value :  8.25139e-06
 Reference value :  8.25303e-06
 Reference value :  8.25387e-06
 Reference value :  8.25565e-06
 Reference value :  8.25925e-06
 Reference value :  8.27124e-06
 Reference value :  8.32552e-06
 Reference value :  8.41583e-06
 Reference value :  8.50000e-06
 Reference value :  8.50000e-06
 Reference value :  8.50000e-06
 Reference value :  8.50001e-06
 Reference value :  8.50004e-06
 Reference value :  8.50010e-06
 Reference value :  8.50012e-06
 Reference value :  8.50018e-06
 Reference value :  8.50045e-06
 Reference value :  8.50119e-06
 Reference value :  8.50170e-06
 Reference value :  8.50268e-06
 Reference value :  8.50400e-06
 Reference value :  8.50540e-06
 Reference value :  8.50682e-06
 Reference value :  8.50922e-06
 Reference value :  8.51420e-06
 Reference value :  8.52701e-06
 Reference value :  8.53147e-06
 Reference value :  8.53716e-06
 Reference value :  8.53878e-06
 Reference value :  8.54353e-06
 Reference value :  8.54551e-06
 Reference value :  8.55121e-06
 Reference value :  8.55747e-06
 Reference value :  8.56560e-06
 Reference value :  8.59889e-06
 Reference value :  8.65399e-06
 Reference value :  8.72315e-06
 Reference value :  8.75011e-06
 Reference value :  8.75020e-06
 Reference value :  8.75032e-06
 Reference value :  8.75095e-06
 Reference value :  8.75185e-06
 Reference value :  8.75302e-06
 Reference value :  8.75438e-06
 Reference value :  8.75574e-06
 Reference value :  8.75930e-06
 Reference value :  8.77048e-06
 Reference value :  8.78734e-06
 Reference value :  8.85491e-06
 Reference value :  9.00001e-06
 Reference value :  9.00007e-06
 Reference value :  9.00012e-06
 Reference value :  9.00022e-06
 Reference value :  9.00050e-06
 Reference value :  9.00129e-06
 Reference value :  9.00218e-06
 Reference value :  9.00394e-06
 Reference value :  9.00568e-06
 Reference value :  9.00804e-06
 Reference value :  9.01074e-06
 Reference value :  9.01372e-06
 Reference value :  9.01512e-06
 Reference value :  9.01910e-06
 Reference value :  9.03072e-06
 Reference value :  9.11786e-06
 Reference value :  9.25011e-06
 Reference value :  9.25020e-06
 Reference value :  9.25026e-06
 Reference value :  9.25068e-06
 Reference value :  9.25138e-06
 Reference value :  9.25302e-06
 Reference value :  9.25439e-06
 Reference value :  9.25661e-06
 Reference value :  9.25816e-06
 Reference value :  9.26177e-06
 Reference value :  9.27660e-06
 Reference value :  9.34509e-06
 Reference value :  9.50001e-06
 Reference value :  9.50007e-06
 Reference value :  9.50011e-06
 Reference value :  9.50016e-06
 Reference value :  9.50034e-06
 Reference value :  9.50128e-06
 Reference value :  9.50219e-06
 Reference value :  9.50329e-06
 Reference value :  9.50441e-06
 Reference value :  9.50556e-06
 Reference value :  9.50609e-06
 Reference value :  9.50756e-06
 Reference value :  9.51070e-06
 Reference value :  9.51284e-06
 Reference value :  9.51452e-06
 Reference value :  9.51646e-06
 Reference value :  9.51967e-06
 Reference value :  9.53237e-06
 Reference value :  9.63818e-06
 Reference value :  9.75011e-06
 Reference value :  9.75020e-06
 Reference value :  9.75026e-06
 Reference value :  9.75068e-06
 Reference value :  9.75138e-06
 Reference value :  9.75235e-06
 Reference value :  9.75302e-06
 Reference value :  9.75375e-06
 Reference value :  9.75436e-06
 Reference value :  9.75567e-06
 Reference value :  9.75757e-06
 Reference value :  9.76138e-06
 Reference value :  9.76839e-06
 Reference value :  9.77223e-06
 Reference value :  9.77549e-06
 Reference value :  9.78180e-06
 Reference value :  9.78732e-06
 Reference value :  9.81190e-06
 Reference value :  9.85651e-06
 Reference value :  9.87986e-06
 Reference value :  9.92795e-06
 Reference value :  9.94937e-06
 Reference value :  9.96187e-06
 Reference value :  9.98094e-06
 Reference value :  1.00000e-05
 Reference value :  1.00001e-05
 Reference value :  1.00002e-05
 Reference value :  1.00005e-05
 Reference value :  1.00013e-05
 Reference value :  1.00022e-05
 Reference value :  1.00033e-05
 Reference value :  1.00039e-05
 Reference value :  1.00047e-05
 Reference value :  1.00065e-05
 Reference value :  1.00073e-05
 Reference value :  1.00090e-05
 Reference value :  1.00112e-05
 Reference value :  1.00195e-05
 Reference value :  1.00831e-05
 Reference value :  1.02501e-05
 Reference value :  1.02502e-05
 Reference value :  1.02504e-05
 Reference value :  1.02514e-05
 Reference value :  1.02530e-05
 Reference value :  1.02544e-05
 Reference value :  1.02567e-05
 Reference value :  1.02593e-05
 Reference value :  1.02752e-05
 Reference value :  1.05000e-05
 Reference value :  1.05001e-05
 Reference value :  1.05003e-05
 Reference value :  1.05013e-05
 Reference value :  1.05022e-05
 Reference value :  1.05033e-05
 Reference value :  1.05044e-05
 Reference value :  1.05056e-05
 Reference value :  1.05067e-05
 Reference value :  1.05097e-05
 Reference value :  1.05107e-05
 Reference value :  1.05128e-05
 Reference value :  1.05145e-05
 Reference value :  1.05165e-05
 Reference value :  1.05186e-05
 Reference value :  1.05212e-05
 Reference value :  1.05368e-05
 Reference value :  1.05708e-05
 Reference value :  1.05802e-05
 Reference value :  1.05845e-05
 Reference value :  1.05929e-05
 Reference value :  1.06040e-05
 Reference value :  1.06362e-05
 Reference value :  1.07501e-05
 Reference value :  1.07502e-05
 Reference value :  1.07502e-05
 Reference value :  1.07507e-05
 Reference value :  1.07514e-05
 Reference value :  1.07530e-05
 Reference value :  1.07544e-05
 Reference value :  1.07567e-05
 Reference value :  1.07614e-05
 Reference value :  1.07839e-05
 Reference value :  1.09069e-05
 Reference value :  1.10000e-05
 Reference value :  1.10001e-05
 Reference value :  1.10002e-05
 Reference value :  1.10005e-05
 Reference value :  1.10013e-05
 Reference value :  1.10022e-05
 Reference value :  1.10032e-05
 Reference value :  1.10044e-05
 Reference value :  1.10062e-05
 Reference value :  1.10082e-05
 Reference value :  1.10104e-05
 Reference value :  1.10155e-05
 Reference value :  1.10789e-05
 Reference value :  1.12501e-05
 Reference value :  1.12502e-05
 Reference value :  1.12503e-05
 Reference value :  1.12509e-05
 Reference value :  1.12518e-05
 Reference value :  1.12530e-05
 Reference value :  1.12544e-05
 Reference value :  1.12558e-05
 Reference value :  1.12592e-05
 Reference value :  1.12839e-05
 Reference value :  1.15000e-05
 Reference value :  1.15001e-05
 Reference value :  1.15001e-05
 Reference value :  1.15003e-05
 Reference value :  1.15013e-05
 Reference value :  1.15022e-05
 Reference value :  1.15033e-05
 Reference value :  1.15044e-05
 Reference value :  1.15056e-05
 Reference value :  1.15067e-05
 Reference value :  1.15100e-05
 Reference value :  1.15128e-05
 Reference value :  1.15149e-05
 Reference value :  1.15170e-05
 Reference value :  1.15207e-05
 Reference value :  1.15717e-05
 Reference value :  1.16315e-05
 Reference value :  1.17501e-05
 Reference value :  1.17502e-05
 Reference value :  1.17503e-05
 Reference value :  1.17509e-05
 Reference value :  1.17518e-05
 Reference value :  1.17538e-05
 Reference value :  1.17544e-05
 Reference value :  1.17557e-05
 Reference value :  1.17576e-05
 Reference value :  1.17655e-05
 Reference value :  1.18050e-05
 Reference value :  1.19681e-05
 Reference value :  1.20000e-05
 Reference value :  1.20001e-05
 Reference value :  1.20001e-05
 Reference value :  1.20002e-05
 Reference value :  1.20003e-05
 Reference value :  1.20008e-05
 Reference value :  1.20013e-05
 Reference value :  1.20022e-05
 Reference value :  1.20032e-05
 Reference value :  1.20044e-05
 Reference value :  1.20062e-05
 Reference value :  1.20082e-05
 Reference value :  1.20092e-05
 Reference value :  1.20115e-05
 Reference value :  1.20205e-05
 Reference value :  1.20790e-05
 Reference value :  1.22501e-05
 Reference value :  1.22502e-05
 Reference value :  1.22503e-05
 Reference value :  1.22507e-05
 Reference value :  1.22514e-05
 Reference value :  1.22524e-05
 Reference value :  1.22538e-05
 Reference value :  1.22551e-05
 Reference value :  1.22576e-05
 Reference value :  1.22614e-05
 Reference value :  1.22839e-05
 Reference value :  1.24052e-05
 Reference value :  1.25000e-05
 Reference value :  1.25001e-05
 Reference value :  1.25001e-05
 Reference value :  1.25003e-05
 Reference value :  1.25013e-05
 Reference value :  1.25022e-05
 Reference value :  1.25039e-05
 Reference value :  1.25050e-05
 Reference value :  1.25061e-05
 Reference value :  1.25084e-05
 Reference value :  1.25114e-05
 Reference value :  1.25128e-05
 Reference value :  1.25149e-05
 Reference value :  1.25171e-05
 Reference value :  1.25211e-05
 Reference value :  1.25306e-05
 Reference value :  1.25415e-05
 Reference value :  1.25528e-05
 Reference value :  1.25609e-05
 Reference value :  1.25844e-05
 Reference value :  1.26743e-05
 Reference value :  1.27501e-05
 Reference value :  1.27502e-05
 Reference value :  1.27502e-05
 Reference value :  1.27503e-05
 Reference value :  1.27507e-05
 Reference value :  1.27514e-05
 Reference value :  1.27524e-05
 Reference value :  1.27537e-05
 Reference value :  1.27551e-05
 Reference value :  1.27567e-05
 Reference value :  1.27618e-05
 Reference value :  1.27845e-05
 Reference value :  1.29005e-05
 Reference value :  1.30000e-05
 Reference value :  1.30001e-05
 Reference value :  1.30002e-05
 Reference value :  1.30005e-05
 Reference value :  1.30013e-05
 Reference value :  1.30022e-05
 Reference value :  1.30033e-05
 Reference value :  1.30039e-05
 Reference value :  1.30047e-05
 Reference value :  1.30066e-05
 Reference value :  1.30073e-05
 Reference value :  1.30090e-05
 Reference value :  1.30112e-05
 Reference value :  1.30289e-05
 Reference value :  1.32501e-05
 Reference value :  1.32502e-05
 Reference value :  1.32509e-05
 Reference value :  1.32524e-05
 Reference value :  1.32544e-05
 Reference value :  1.32567e-05
 Reference value :  1.32584e-05
 Reference value :  1.32607e-05
 Reference value :  1.32648e-05
 Reference value :  1.32874e-05
 Reference value :  1.34253e-05
 Reference value :  1.35000e-05
 Reference value :  1.35001e-05
 Reference value :  1.35001e-05
 Reference value :  1.35002e-05
 Reference value :  1.35008e-05
 Reference value :  1.35018e-05
 Reference value :  1.35022e-05
 Reference value :  1.35033e-05
 Reference value :  1.35044e-05
 Reference value :  1.35056e-05
 Reference value :  1.35067e-05
 Reference value :  1.35097e-05
 Reference value :  1.35117e-05
 Reference value :  1.35137e-05
 Reference value :  1.35154e-05
 Reference value :  1.35185e-05
 Reference value :  1.35230e-05
 Reference value :  1.35300e-05
 Reference value :  1.35420e-05
 Reference value :  1.35561e-05
 Reference value :  1.35733e-05
 Reference value :  1.35850e-05
 Reference value :  1.36024e-05
 Reference value :  1.36340e-05
 Reference value :  1.37380e-05
 Reference value :  1.37501e-05
 Reference value :  1.37502e-05
 Reference value :  1.37504e-05
 Reference value :  1.37514e-05
 Reference value :  1.37530e-05
 Reference value :  1.37551e-05
 Reference value :  1.37579e-05
 Reference value :  1.37730e-05
 Reference value :  1.39032e-05
 Reference value :  1.40000e-05
 Reference value :  1.40001e-05
 Reference value :  1.40002e-05
 Reference value :  1.40008e-05
 Reference value :  1.40018e-05
 Reference value :  1.40022e-05
 Reference value :  1.40033e-05
 Reference value :  1.40039e-05
 Reference value :  1.40047e-05
 Reference value :  1.40066e-05
 Reference value :  1.40073e-05
 Reference value :  1.40090e-05
 Reference value :  1.40124e-05
 Reference value :  1.40289e-05
 Reference value :  1.42501e-05
 Reference value :  1.42502e-05
 Reference value :  1.42504e-05
 Reference value :  1.42514e-05
 Reference value :  1.42538e-05
 Reference value :  1.42558e-05
 Reference value :  1.42584e-05
 Reference value :  1.42648e-05
 Reference value :  1.43075e-05
 Reference value :  1.45000e-05
 Reference value :  1.45001e-05
 Reference value :  1.45003e-05
 Reference value :  1.45013e-05
 Reference value :  1.45022e-05
 Reference value :  1.45039e-05
 Reference value :  1.45050e-05
 Reference value :  1.45061e-05
 Reference value :  1.45084e-05
 Reference value :  1.45107e-05
 Reference value :  1.45137e-05
 Reference value :  1.45165e-05
 Reference value :  1.45197e-05
 Reference value :  1.45289e-05
 Reference value :  1.45369e-05
 Reference value :  1.45485e-05
 Reference value :  1.45577e-05
 Reference value :  1.45829e-05
 Reference value :  1.46583e-05
 Reference value :  1.47501e-05
 Reference value :  1.47502e-05
 Reference value :  1.47503e-05
 Reference value :  1.47509e-05
 Reference value :  1.47518e-05
 Reference value :  1.47530e-05
 Reference value :  1.47544e-05
 Reference value :  1.47567e-05
 Reference value :  1.47614e-05
 Reference value :  1.48049e-05
 Reference value :  1.50000e-05
 Reference value :  1.50001e-05
 Reference value :  1.50002e-05
 Reference value :  1.50008e-05
 Reference value :  1.50018e-05
 Reference value :  1.50027e-05
 Reference value :  1.50038e-05
 Reference value :  1.50051e-05
 Reference value :  1.50072e-05
 Reference value :  1.50093e-05
 Reference value :  1.50116e-05
 Reference value :  1.50204e-05
 Reference value :  1.50785e-05
 Reference value :  1.52501e-05
 Reference value :  1.52501e-05
 Reference value :  1.52502e-05
 Reference value :  1.52503e-05
 Reference value :  1.52507e-05
 Reference value :  1.52514e-05
 Reference value :  1.52530e-05
 Reference value :  1.52544e-05
 Reference value :  1.52558e-05
 Reference value :  1.52592e-05
 Reference value :  1.52838e-05
 Reference value :  1.55000e-05
 Reference value :  1.55015e-05
 Reference value :  1.55045e-05
 Reference value :  1.55061e-05
 Reference value :  1.55092e-05
 Reference value :  1.55120e-05
 Reference value :  1.55145e-05
 Reference value :  1.55166e-05
 Reference value :  1.55190e-05
 Reference value :  1.55225e-05
 Reference value :  1.55286e-05
 Reference value :  1.55495e-05
 Reference value :  1.55620e-05
 Reference value :  1.55758e-05
 Reference value :  1.56318e-05
 Reference value :  1.56751e-05
 Reference value :  1.57501e-05
 Reference value :  1.57502e-05
 Reference value :  1.57502e-05
 Reference value :  1.57503e-05
 Reference value :  1.57507e-05
 Reference value :  1.57514e-05
 Reference value :  1.57524e-05
 Reference value :  1.57537e-05
 Reference value :  1.57551e-05
 Reference value :  1.57579e-05
 Reference value :  1.57660e-05
 Reference value :  1.58045e-05
 Reference value :  1.60000e-05
 Reference value :  1.60001e-05
 Reference value :  1.60001e-05
 Reference value :  1.60002e-05
 Reference value :  1.60005e-05
 Reference value :  1.60013e-05
 Reference value :  1.60022e-05
 Reference value :  1.60039e-05
 Reference value :  1.60055e-05
 Reference value :  1.60074e-05
 Reference value :  1.60090e-05
 Reference value :  1.60124e-05
 Reference value :  1.60471e-05
 Reference value :  1.62501e-05
 Reference value :  1.62502e-05
 Reference value :  1.62503e-05
 Reference value :  1.62509e-05
 Reference value :  1.62518e-05
 Reference value :  1.62530e-05
 Reference value :  1.62544e-05
 Reference value :  1.62567e-05
 Reference value :  1.62593e-05
 Reference value :  1.62683e-05
 Reference value :  1.64229e-05
 Reference value :  1.65001e-05
 Reference value :  1.65002e-05
 Reference value :  1.65013e-05
 Reference value :  1.65022e-05
 Reference value :  1.65039e-05
 Reference value :  1.65050e-05
 Reference value :  1.65061e-05
 Reference value :  1.65076e-05
 Reference value :  1.65100e-05
 Reference value :  1.65118e-05
 Reference value :  1.65161e-05
 Reference value :  1.65295e-05
 Reference value :  1.65463e-05
 Reference value :  1.65687e-05
 Reference value :  1.65866e-05
 Reference value :  1.66216e-05
 Reference value :  1.67187e-05
 Reference value :  1.67502e-05
 Reference value :  1.67502e-05
 Reference value :  1.67504e-05
 Reference value :  1.67514e-05
 Reference value :  1.67539e-05
 Reference value :  1.67579e-05
 Reference value :  1.67806e-05
 Reference value :  1.69959e-05
 Reference value :  1.70000e-05
 Reference value :  1.70000e-05
 Reference value :  1.70000e-05
 Reference value :  1.70001e-05
 Reference value :  1.70001e-05
 Reference value :  1.70002e-05
 Reference value :  1.70008e-05
 Reference value :  1.70017e-05
 Reference value :  1.70027e-05
 Reference value :  1.70048e-05
 Reference value :  1.70061e-05
 Reference value :  1.70092e-05
 Reference value :  1.70208e-05
 Reference value :  1.70270e-05
 Reference value :  1.70315e-05
 Reference value :  1.70368e-05
 Reference value :  1.70384e-05
 Reference value :  1.70414e-05
 Reference value :  1.70435e-05
 Reference value :  1.70496e-05
 Reference value :  1.70561e-05
 Reference value :  1.70643e-05
 Reference value :  1.70972e-05
 Reference value :  1.71299e-05
 Reference value :  1.72179e-05
 Reference value :  1.72501e-05
 Reference value :  1.72502e-05
 Reference value :  1.72503e-05
 Reference value :  1.72509e-05
 Reference value :  1.72518e-05
 Reference value :  1.72537e-05
 Reference value :  1.72557e-05
 Reference value :  1.72618e-05
 Reference value :  1.72759e-05
 Reference value :  1.73191e-05
 Reference value :  1.75000e-05
 Reference value :  1.75001e-05
 Reference value :  1.75002e-05
 Reference value :  1.75008e-05
 Reference value :  1.75018e-05
 Reference value :  1.75026e-05
 Reference value :  1.75048e-05
 Reference value :  1.75080e-05
 Reference value :  1.75121e-05
 Reference value :  1.75151e-05
 Reference value :  1.75211e-05
 Reference value :  1.75522e-05
 Reference value :  1.77501e-05
 Reference value :  1.77502e-05
 Reference value :  1.77503e-05
 Reference value :  1.77509e-05
 Reference value :  1.77524e-05
 Reference value :  1.77544e-05
 Reference value :  1.77566e-05
 Reference value :  1.77582e-05
 Reference value :  1.77618e-05
 Reference value :  1.77766e-05
 Reference value :  1.78172e-05
 Reference value :  1.79786e-05
 Reference value :  1.80004e-05
 Reference value :  1.80015e-05
 Reference value :  1.80028e-05
 Reference value :  1.80047e-05
 Reference value :  1.80058e-05
 Reference value :  1.80078e-05
 Reference value :  1.80099e-05
 Reference value :  1.80119e-05
 Reference value :  1.80144e-05
 Reference value :  1.80153e-05
 Reference value :  1.80172e-05
 Reference value :  1.80194e-05
 Reference value :  1.80263e-05
 Reference value :  1.80877e-05
 Reference value :  1.82501e-05
 Reference value :  1.82502e-05
 Reference value :  1.82504e-05
 Reference value :  1.82514e-05
 Reference value :  1.82530e-05
 Reference value :  1.82544e-05
 Reference value :  1.82557e-05
 Reference value :  1.82591e-05
 Reference value :  1.82652e-05
 Reference value :  1.82697e-05
 Reference value :  1.82782e-05
 Reference value :  1.82851e-05
 Reference value :  1.83143e-05
 Reference value :  1.83648e-05
 Reference value :  1.84096e-05
 Reference value :  1.84361e-05
 Reference value :  1.84622e-05
 Reference value :  1.84820e-05
 Reference value :  1.85000e-05
 Reference value :  1.85001e-05
 Reference value :  1.85002e-05
 Reference value :  1.85008e-05
 Reference value :  1.85018e-05
 Reference value :  1.85033e-05
 Reference value :  1.85047e-05
 Reference value :  1.85065e-05
 Reference value :  1.85082e-05
 Reference value :  1.85112e-05
 Reference value :  1.85284e-05
 Reference value :  1.87501e-05
 Reference value :  1.87502e-05
 Reference value :  1.87504e-05
 Reference value :  1.87514e-05
 Reference value :  1.87530e-05
 Reference value :  1.87544e-05
 Reference value :  1.87567e-05
 Reference value :  1.87584e-05
 Reference value :  1.87607e-05
 Reference value :  1.87683e-05
 Reference value :  1.88080e-05
 Reference value :  1.90000e-05
 Reference value :  1.90001e-05
 Reference value :  1.90001e-05
 Reference value :  1.90003e-05
 Reference value :  1.90013e-05
 Reference value :  1.90022e-05
 Reference value :  1.90033e-05
 Reference value :  1.90044e-05
 Reference value :  1.90056e-05
 Reference value :  1.90061e-05
 Reference value :  1.90084e-05
 Reference value :  1.90107e-05
 Reference value :  1.90128e-05
 Reference value :  1.90137e-05
 Reference value :  1.90155e-05
 Reference value :  1.90175e-05
 Reference value :  1.90212e-05
 Reference value :  1.90303e-05
 Reference value :  1.90590e-05
 Reference value :  1.90709e-05
 Reference value :  1.90799e-05
 Reference value :  1.90878e-05
 Reference value :  1.91082e-05
 Reference value :  1.92501e-05
 Reference value :  1.92502e-05
 Reference value :  1.92502e-05
 Reference value :  1.92504e-05
 Reference value :  1.92514e-05
 Reference value :  1.92538e-05
 Reference value :  1.92550e-05
 Reference value :  1.92592e-05
 Reference value :  1.93049e-05
 Reference value :  1.95017e-05
 Reference value :  1.95070e-05
 Reference value :  1.95101e-05
 Reference value :  1.95147e-05
 Reference value :  1.95361e-05
 Reference value :  1.96802e-05
 Reference value :  1.97501e-05
 Reference value :  1.97503e-05
 Reference value :  1.97514e-05
 Reference value :  1.97537e-05
 Reference value :  1.97556e-05
 Reference value :  1.97588e-05
 Reference value :  1.97814e-05
 Reference value :  1.99963e-05
 Reference value :  2.00001e-05
 Reference value :  2.00002e-05
 Reference value :  2.00013e-05
 Reference value :  2.00027e-05
 Reference value :  2.00044e-05
 Reference value :  2.00056e-05
 Reference value :  2.00067e-05
 Reference value :  2.00100e-05
 Reference value :  2.00128e-05
 Reference value :  2.00149e-05
 Reference value :  2.00170e-05
 Reference value :  2.00193e-05
 Reference value :  2.00307e-05
 Reference value :  2.01006e-05
 Reference value :  2.02501e-05
 Reference value :  2.02502e-05
 Reference value :  2.02503e-05
 Reference value :  2.02509e-05
 Reference value :  2.02518e-05
 Reference value :  2.02538e-05
 Reference value :  2.02550e-05
 Reference value :  2.02576e-05
 Reference value :  2.02725e-05
 Reference value :  2.03975e-05
 Reference value :  2.05001e-05
 Reference value :  2.05005e-05
 Reference value :  2.05009e-05
 Reference value :  2.05016e-05
 Reference value :  2.05025e-05
 Reference value :  2.05036e-05
 Reference value :  2.05043e-05
 Reference value :  2.05059e-05
 Reference value :  2.05078e-05
 Reference value :  2.05098e-05
 Reference value :  2.05123e-05
 Reference value :  2.05225e-05
 Reference value :  2.05949e-05
 Reference value :  2.07501e-05
 Reference value :  2.07502e-05
 Reference value :  2.07502e-05
 Reference value :  2.07503e-05
 Reference value :  2.07507e-05
 Reference value :  2.07514e-05
 Reference value :  2.07530e-05
 Reference value :  2.07544e-05
 Reference value :  2.07558e-05
 Reference value :  2.07576e-05
 Reference value :  2.07614e-05
 Reference value :  2.07841e-05
 Reference value :  2.09065e-05
 Reference value :  2.10000e-05
 Reference value :  2.10001e-05
 Reference value :  2.10002e-05
 Reference value :  2.10005e-05
 Reference value :  2.10013e-05
 Reference value :  2.10022e-05
 Reference value :  2.10033e-05
 Reference value :  2.10044e-05
 Reference value :  2.10056e-05
 Reference value :  2.10067e-05
 Reference value :  2.10084e-05
 Reference value :  2.10114e-05
 Reference value :  2.10128e-05
 Reference value :  2.10139e-05
 Reference value :  2.10160e-05
 Reference value :  2.10171e-05
 Reference value :  2.10194e-05
 Reference value :  2.10261e-05
 Reference value :  2.10348e-05
 Reference value :  2.10415e-05
 Reference value :  2.10479e-05
 Reference value :  2.10529e-05
 Reference value :  2.10613e-05
 Reference value :  2.10790e-05
 Reference value :  2.11140e-05
 Reference value :  2.12501e-05
 Reference value :  2.12502e-05
 Reference value :  2.12502e-05
 Reference value :  2.12504e-05
 Reference value :  2.12514e-05
 Reference value :  2.12530e-05
 Reference value :  2.12544e-05
 Reference value :  2.12558e-05
 Reference value :  2.12594e-05
 Reference value :  2.12729e-05
 Reference value :  2.13384e-05
 Reference value :  2.15000e-05
 Reference value :  2.15001e-05
 Reference value :  2.15002e-05
 Reference value :  2.15013e-05
 Reference value :  2.15022e-05
 Reference value :  2.15039e-05
 Reference value :  2.15055e-05
 Reference value :  2.15073e-05
 Reference value :  2.15090e-05
 Reference value :  2.15124e-05
 Reference value :  2.15476e-05
 Reference value :  2.17501e-05
 Reference value :  2.17502e-05
 Reference value :  2.17504e-05
 Reference value :  2.17514e-05
 Reference value :  2.17530e-05
 Reference value :  2.17544e-05
 Reference value :  2.17567e-05
 Reference value :  2.17593e-05
 Reference value :  2.17683e-05
 Reference value :  2.19252e-05
 Reference value :  2.20012e-05
 Reference value :  2.20050e-05
 Reference value :  2.20072e-05
 Reference value :  2.20102e-05
 Reference value :  2.20122e-05
 Reference value :  2.20141e-05
 Reference value :  2.20158e-05
 Reference value :  2.20178e-05
 Reference value :  2.20215e-05
 Reference value :  2.20301e-05
 Reference value :  2.20409e-05
 Reference value :  2.20444e-05
 Reference value :  2.20512e-05
 Reference value :  2.20686e-05
 Reference value :  2.20768e-05
 Reference value :  2.20970e-05
 Reference value :  2.21185e-05
 Reference value :  2.21600e-05
 Reference value :  2.22501e-05
 Reference value :  2.22502e-05
 Reference value :  2.22502e-05
 Reference value :  2.22504e-05
 Reference value :  2.22514e-05
 Reference value :  2.22530e-05
 Reference value :  2.22558e-05
 Reference value :  2.22618e-05
 Reference value :  2.23367e-05
 Reference value :  2.25000e-05
 Reference value :  2.25001e-05
 Reference value :  2.25002e-05
 Reference value :  2.25008e-05
 Reference value :  2.25018e-05
 Reference value :  2.25026e-05
 Reference value :  2.25039e-05
 Reference value :  2.25055e-05
 Reference value :  2.25073e-05
 Reference value :  2.25090e-05
 Reference value :  2.25112e-05
 Reference value :  2.25196e-05
 Reference value :  2.25844e-05
 Reference value :  2.27501e-05
 Reference value :  2.27502e-05
 Reference value :  2.27503e-05
 Reference value :  2.27504e-05
 Reference value :  2.27514e-05
 Reference value :  2.27530e-05
 Reference value :  2.27544e-05
 Reference value :  2.27567e-05
 Reference value :  2.27584e-05
 Reference value :  2.27621e-05
 Reference value :  2.27752e-05
 Reference value :  2.28481e-05
 Reference value :  2.30013e-05
 Reference value :  2.30051e-05
 Reference value :  2.30073e-05
 Reference value :  2.30103e-05
 Reference value :  2.30122e-05
 Reference value :  2.30140e-05
 Reference value :  2.30156e-05
 Reference value :  2.30174e-05
 Reference value :  2.30207e-05
 Reference value :  2.30301e-05
 Reference value :  2.30361e-05
 Reference value :  2.30419e-05
 Reference value :  2.30588e-05
 Reference value :  2.30939e-05
 Reference value :  2.32501e-05
 Reference value :  2.32502e-05
 Reference value :  2.32504e-05
 Reference value :  2.32509e-05
 Reference value :  2.32514e-05
 Reference value :  2.32519e-05
 Reference value :  2.32530e-05
 Reference value :  2.32544e-05
 Reference value :  2.32566e-05
 Reference value :  2.32614e-05
 Reference value :  2.32653e-05
 Reference value :  2.33992e-05
 Reference value :  2.35000e-05
 Reference value :  2.35001e-05
 Reference value :  2.35003e-05
 Reference value :  2.35013e-05
 Reference value :  2.35022e-05
 Reference value :  2.35032e-05
 Reference value :  2.35044e-05
 Reference value :  2.35072e-05
 Reference value :  2.35093e-05
 Reference value :  2.35129e-05
 Reference value :  2.35456e-05
 Reference value :  2.37501e-05
 Reference value :  2.37501e-05
 Reference value :  2.37502e-05
 Reference value :  2.37503e-05
 Reference value :  2.37507e-05
 Reference value :  2.37514e-05
 Reference value :  2.37530e-05
 Reference value :  2.37544e-05
 Reference value :  2.37567e-05
 Reference value :  2.37614e-05
 Reference value :  2.38048e-05
 Reference value :  2.40000e-05
 Reference value :  2.40001e-05
 Reference value :  2.40003e-05
 Reference value :  2.40013e-05
 Reference value :  2.40022e-05
 Reference value :  2.40039e-05
 Reference value :  2.40050e-05
 Reference value :  2.40061e-05
 Reference value :  2.40100e-05
 Reference value :  2.40128e-05
 Reference value :  2.40149e-05
 Reference value :  2.40171e-05
 Reference value :  2.40211e-05
 Reference value :  2.40316e-05
 Reference value :  2.40868e-05
 Reference value :  2.41625e-05
 Reference value :  2.42444e-05
 Reference value :  2.42501e-05
 Reference value :  2.42502e-05
 Reference value :  2.42503e-05
 Reference value :  2.42507e-05
 Reference value :  2.42514e-05
 Reference value :  2.42524e-05
 Reference value :  2.42537e-05
 Reference value :  2.42558e-05
 Reference value :  2.42594e-05
 Reference value :  2.42729e-05
 Reference value :  2.44003e-05
 Reference value :  2.45000e-05
 Reference value :  2.45001e-05
 Reference value :  2.45002e-05
 Reference value :  2.45005e-05
 Reference value :  2.45013e-05
 Reference value :  2.45022e-05
 Reference value :  2.45033e-05
 Reference value :  2.45047e-05
 Reference value :  2.45066e-05
 Reference value :  2.45073e-05
 Reference value :  2.45090e-05
 Reference value :  2.45112e-05
 Reference value :  2.45196e-05
 Reference value :  2.45850e-05
 Reference value :  2.47501e-05
 Reference value :  2.47502e-05
 Reference value :  2.47502e-05
 Reference value :  2.47503e-05
 Reference value :  2.47507e-05
 Reference value :  2.47514e-05
 Reference value :  2.47523e-05
 Reference value :  2.47538e-05
 Reference value :  2.47550e-05
 Reference value :  2.47567e-05
 Reference value :  2.47584e-05
 Reference value :  2.47621e-05
 Reference value :  2.47872e-05
 Reference value :  2.49235e-05
 Reference value :  2.50001e-05
 Reference value :  2.50002e-05
 Reference value :  2.50005e-05
 Reference value :  2.50013e-05
 Reference value :  2.50022e-05
 Reference value :  2.50033e-05
 Reference value :  2.50044e-05
 Reference value :  2.50056e-05
 Reference value :  2.50067e-05
 Reference value :  2.50084e-05
 Reference value :  2.50100e-05
 Reference value :  2.50118e-05
 Reference value :  2.50148e-05
 Reference value :  2.50179e-05
 Reference value :  2.50339e-05
 Reference value :  2.50509e-05
 Reference value :  2.50676e-05
 Reference value :  2.51393e-05
 Reference value :  2.52501e-05
 Reference value :  2.52502e-05
 Reference value :  2.52504e-05
 Reference value :  2.52514e-05
 Reference value :  2.52524e-05
 Reference value :  2.52539e-05
 Reference value :  2.52566e-05
 Reference value :  2.52618e-05
 Reference value :  2.52806e-05
 Reference value :  2.53835e-05
 Reference value :  2.55000e-05
 Reference value :  2.55000e-05
 Reference value :  2.55000e-05
 Reference value :  2.55000e-05
 Reference value :  2.55001e-05
 Reference value :  2.55003e-05
 Reference value :  2.55017e-05
 Reference value :  2.55033e-05
 Reference value :  2.55054e-05
 Reference value :  2.55068e-05
 Reference value :  2.55109e-05
 Reference value :  2.55270e-05
 Reference value :  2.55315e-05
 Reference value :  2.55344e-05
 Reference value :  2.55365e-05
 Reference value :  2.55395e-05
 Reference value :  2.55463e-05
 Reference value :  2.55525e-05
 Reference value :  2.55654e-05
 Reference value :  2.56056e-05
 Reference value :  2.57029e-05
 Reference value :  2.57324e-05
 Reference value :  2.57501e-05
 Reference value :  2.57502e-05
 Reference value :  2.57503e-05
 Reference value :  2.57509e-05
 Reference value :  2.57519e-05
 Reference value :  2.57530e-05
 Reference value :  2.57543e-05
 Reference value :  2.57556e-05
 Reference value :  2.57590e-05
 Reference value :  2.57826e-05
 Reference value :  2.59904e-05
 Reference value :  2.60000e-05
 Reference value :  2.60001e-05
 Reference value :  2.60002e-05
 Reference value :  2.60008e-05
 Reference value :  2.60013e-05
 Reference value :  2.60022e-05
 Reference value :  2.60033e-05
 Reference value :  2.60048e-05
 Reference value :  2.60067e-05
 Reference value :  2.60080e-05
 Reference value :  2.60107e-05
 Reference value :  2.60137e-05
 Reference value :  2.60151e-05
 Reference value :  2.60211e-05
 Reference value :  2.60381e-05
 Reference value :  2.61185e-05
 Reference value :  2.62501e-05
 Reference value :  2.62502e-05
 Reference value :  2.62507e-05
 Reference value :  2.62514e-05
 Reference value :  2.62530e-05
 Reference value :  2.62544e-05
 Reference value :  2.62566e-05
 Reference value :  2.62582e-05
 Reference value :  2.62636e-05
 Reference value :  2.62981e-05
 Reference value :  2.65004e-05
 Reference value :  2.65015e-05
 Reference value :  2.65027e-05
 Reference value :  2.65044e-05
 Reference value :  2.65055e-05
 Reference value :  2.65076e-05
 Reference value :  2.65108e-05
 Reference value :  2.65139e-05
 Reference value :  2.65157e-05
 Reference value :  2.65189e-05
 Reference value :  2.65307e-05
 Reference value :  2.65898e-05
 Reference value :  2.66982e-05
 Reference value :  2.67501e-05
 Reference value :  2.67502e-05
 Reference value :  2.67507e-05
 Reference value :  2.67514e-05
 Reference value :  2.67523e-05
 Reference value :  2.67537e-05
 Reference value :  2.67550e-05
 Reference value :  2.67575e-05
 Reference value :  2.67652e-05
 Reference value :  2.67689e-05
 Reference value :  2.67716e-05
 Reference value :  2.67767e-05
 Reference value :  2.67869e-05
 Reference value :  2.68121e-05
 Reference value :  2.68404e-05
 Reference value :  2.69267e-05
 Reference value :  2.69540e-05
 Reference value :  2.69708e-05
 Reference value :  2.69972e-05
 Reference value :  2.70000e-05
 Reference value :  2.70001e-05
 Reference value :  2.70002e-05
 Reference value :  2.70005e-05
 Reference value :  2.70013e-05
 Reference value :  2.70022e-05
 Reference value :  2.70040e-05
 Reference value :  2.70067e-05
 Reference value :  2.70075e-05
 Reference value :  2.70092e-05
 Reference value :  2.70112e-05
 Reference value :  2.70273e-05
 Reference value :  2.71380e-05
 Reference value :  2.72501e-05
 Reference value :  2.72502e-05
 Reference value :  2.72503e-05
 Reference value :  2.72507e-05
 Reference value :  2.72514e-05
 Reference value :  2.72524e-05
 Reference value :  2.72538e-05
 Reference value :  2.72550e-05
 Reference value :  2.72567e-05
 Reference value :  2.72584e-05
 Reference value :  2.72621e-05
 Reference value :  2.72876e-05
 Reference value :  2.75000e-05
 Reference value :  2.75001e-05
 Reference value :  2.75003e-05
 Reference value :  2.75013e-05
 Reference value :  2.75022e-05
 Reference value :  2.75033e-05
 Reference value :  2.75044e-05
 Reference value :  2.75056e-05
 Reference value :  2.75067e-05
 Reference value :  2.75097e-05
 Reference value :  2.75107e-05
 Reference value :  2.75128e-05
 Reference value :  2.75137e-05
 Reference value :  2.75155e-05
 Reference value :  2.75175e-05
 Reference value :  2.75197e-05
 Reference value :  2.75229e-05
 Reference value :  2.75368e-05
 Reference value :  2.75694e-05
 Reference value :  2.75820e-05
 Reference value :  2.75895e-05
 Reference value :  2.75994e-05
 Reference value :  2.76470e-05
 Reference value :  2.77501e-05
 Reference value :  2.77502e-05
 Reference value :  2.77504e-05
 Reference value :  2.77514e-05
 Reference value :  2.77530e-05
 Reference value :  2.77544e-05
 Reference value :  2.77567e-05
 Reference value :  2.77614e-05
 Reference value :  2.77840e-05
 Reference value :  2.79069e-05
 Reference value :  2.80017e-05
 Reference value :  2.80052e-05
 Reference value :  2.80069e-05
 Reference value :  2.80101e-05
 Reference value :  2.80131e-05
 Reference value :  2.80210e-05
 Reference value :  2.80509e-05
 Reference value :  2.81799e-05
 Reference value :  2.82501e-05
 Reference value :  2.82502e-05
 Reference value :  2.82503e-05
 Reference value :  2.82507e-05
 Reference value :  2.82514e-05
 Reference value :  2.82524e-05
 Reference value :  2.82537e-05
 Reference value :  2.82549e-05
 Reference value :  2.82574e-05
 Reference value :  2.82644e-05
 Reference value :  2.83340e-05
 Reference value :  2.85000e-05
 Reference value :  2.85001e-05
 Reference value :  2.85002e-05
 Reference value :  2.85005e-05
 Reference value :  2.85013e-05
 Reference value :  2.85022e-05
 Reference value :  2.85033e-05
 Reference value :  2.85044e-05
 Reference value :  2.85056e-05
 Reference value :  2.85061e-05
 Reference value :  2.85076e-05
 Reference value :  2.85100e-05
 Reference value :  2.85128e-05
 Reference value :  2.85139e-05
 Reference value :  2.85160e-05
 Reference value :  2.85170e-05
 Reference value :  2.85193e-05
 Reference value :  2.85253e-05
 Reference value :  2.85542e-05
 Reference value :  2.86312e-05
 Reference value :  2.87501e-05
 Reference value :  2.87502e-05
 Reference value :  2.87502e-05
 Reference value :  2.87504e-05
 Reference value :  2.87514e-05
 Reference value :  2.87524e-05
 Reference value :  2.87538e-05
 Reference value :  2.87550e-05
 Reference value :  2.87567e-05
 Reference value :  2.87655e-05
 Reference value :  2.88403e-05
 Reference value :  2.90018e-05
 Reference value :  2.90053e-05
 Reference value :  2.90071e-05
 Reference value :  2.90103e-05
 Reference value :  2.90134e-05
 Reference value :  2.90282e-05
 Reference value :  2.91317e-05
 Reference value :  2.92501e-05
 Reference value :  2.92502e-05
 Reference value :  2.92504e-05
 Reference value :  2.92514e-05
 Reference value :  2.92530e-05
 Reference value :  2.92542e-05
 Reference value :  2.92563e-05
 Reference value :  2.92608e-05
 Reference value :  2.92964e-05
 Reference value :  2.95000e-05
 Reference value :  2.95001e-05
 Reference value :  2.95002e-05
 Reference value :  2.95008e-05
 Reference value :  2.95022e-05
 Reference value :  2.95039e-05
 Reference value :  2.95050e-05
 Reference value :  2.95056e-05
 Reference value :  2.95067e-05
 Reference value :  2.95100e-05
 Reference value :  2.95128e-05
 Reference value :  2.95149e-05
 Reference value :  2.95171e-05
 Reference value :  2.95194e-05
 Reference value :  2.95261e-05
 Reference value :  2.95304e-05
 Reference value :  2.95419e-05
 Reference value :  2.95486e-05
 Reference value :  2.95537e-05
 Reference value :  2.95625e-05
 Reference value :  2.95742e-05
 Reference value :  2.96130e-05
 Reference value :  2.97501e-05
 Reference value :  2.97502e-05
 Reference value :  2.97503e-05
 Reference value :  2.97509e-05
 Reference value :  2.97524e-05
 Reference value :  2.97544e-05
 Reference value :  2.97579e-05
 Reference value :  2.97845e-05
 Reference value :  3.00000e-05
 Reference value :  3.00001e-05
 Reference value :  3.00002e-05
 Reference value :  3.00005e-05
 Reference value :  3.00013e-05
 Reference value :  3.00026e-05
 Reference value :  3.00047e-05
 Reference value :  3.00073e-05
 Reference value :  3.00090e-05
 Reference value :  3.00148e-05
 Reference value :  3.00850e-05
 Reference value :  3.02501e-05
 Reference value :  3.02502e-05
 Reference value :  3.02503e-05
 Reference value :  3.02509e-05
 Reference value :  3.02518e-05
 Reference value :  3.02530e-05
 Reference value :  3.02544e-05
 Reference value :  3.02558e-05
 Reference value :  3.02576e-05
 Reference value :  3.02593e-05
 Reference value :  3.02683e-05
 Reference value :  3.04252e-05
 Reference value :  3.05012e-05
 Reference value :  3.05037e-05
 Reference value :  3.05050e-05
 Reference value :  3.05072e-05
 Reference value :  3.05102e-05
 Reference value :  3.05122e-05
 Reference value :  3.05149e-05
 Reference value :  3.05178e-05
 Reference value :  3.05215e-05
 Reference value :  3.05300e-05
 Reference value :  3.05404e-05
 Reference value :  3.05429e-05
 Reference value :  3.05483e-05
 Reference value :  3.05629e-05
 Reference value :  3.05997e-05
 Reference value :  3.06285e-05
 Reference value :  3.06545e-05
 Reference value :  3.07209e-05
 Reference value :  3.07501e-05
 Reference value :  3.07502e-05
 Reference value :  3.07503e-05
 Reference value :  3.07507e-05
 Reference value :  3.07514e-05
 Reference value :  3.07524e-05
 Reference value :  3.07537e-05
 Reference value :  3.07551e-05
 Reference value :  3.07579e-05
 Reference value :  3.07659e-05
 Reference value :  3.08365e-05
 Reference value :  3.10000e-05
 Reference value :  3.10001e-05
 Reference value :  3.10005e-05
 Reference value :  3.10013e-05
 Reference value :  3.10026e-05
 Reference value :  3.10039e-05
 Reference value :  3.10055e-05
 Reference value :  3.10073e-05
 Reference value :  3.10090e-05
 Reference value :  3.10196e-05
 Reference value :  3.12501e-05
 Reference value :  3.12502e-05
 Reference value :  3.12507e-05
 Reference value :  3.12518e-05
 Reference value :  3.12538e-05
 Reference value :  3.12558e-05
 Reference value :  3.12584e-05
 Reference value :  3.12621e-05
 Reference value :  3.12752e-05
 Reference value :  3.13480e-05
 Reference value :  3.15000e-05
 Reference value :  3.15001e-05
 Reference value :  3.15001e-05
 Reference value :  3.15002e-05
 Reference value :  3.15003e-05
 Reference value :  3.15008e-05
 Reference value :  3.15013e-05
 Reference value :  3.15022e-05
 Reference value :  3.15033e-05
 Reference value :  3.15039e-05
 Reference value :  3.15044e-05
 Reference value :  3.15056e-05
 Reference value :  3.15067e-05
 Reference value :  3.15097e-05
 Reference value :  3.15117e-05
 Reference value :  3.15137e-05
 Reference value :  3.15165e-05
 Reference value :  3.15197e-05
 Reference value :  3.15230e-05
 Reference value :  3.15279e-05
 Reference value :  3.15299e-05
 Reference value :  3.15365e-05
 Reference value :  3.15763e-05
 Reference value :  3.17501e-05
 Reference value :  3.17502e-05
 Reference value :  3.17503e-05
 Reference value :  3.17509e-05
 Reference value :  3.17518e-05
 Reference value :  3.17538e-05
 Reference value :  3.17557e-05
 Reference value :  3.17654e-05
 Reference value :  3.19067e-05
 Reference value :  3.20001e-05
 Reference value :  3.20002e-05
 Reference value :  3.20013e-05
 Reference value :  3.20027e-05
 Reference value :  3.20038e-05
 Reference value :  3.20051e-05
 Reference value :  3.20082e-05
 Reference value :  3.20116e-05
 Reference value :  3.20453e-05
 Reference value :  3.22501e-05
 Reference value :  3.22503e-05
 Reference value :  3.22509e-05
 Reference value :  3.22524e-05
 Reference value :  3.22544e-05
 Reference value :  3.22576e-05
 Reference value :  3.23048e-05
 Reference value :  3.25001e-05
 Reference value :  3.25002e-05
 Reference value :  3.25013e-05
 Reference value :  3.25022e-05
 Reference value :  3.25039e-05
 Reference value :  3.25050e-05
 Reference value :  3.25061e-05
 Reference value :  3.25084e-05
 Reference value :  3.25128e-05
 Reference value :  3.25160e-05
 Reference value :  3.25171e-05
 Reference value :  3.25211e-05
 Reference value :  3.25384e-05
 Reference value :  3.26508e-05
 Reference value :  3.27501e-05
 Reference value :  3.27502e-05
 Reference value :  3.27503e-05
 Reference value :  3.27504e-05
 Reference value :  3.27509e-05
 Reference value :  3.27514e-05
 Reference value :  3.27524e-05
 Reference value :  3.27538e-05
 Reference value :  3.27551e-05
 Reference value :  3.27592e-05
 Reference value :  3.29046e-05
 Reference value :  3.29740e-05
 Reference value :  3.30000e-05
 Reference value :  3.30001e-05
 Reference value :  3.30005e-05
 Reference value :  3.30013e-05
 Reference value :  3.30033e-05
 Reference value :  3.30047e-05
 Reference value :  3.30074e-05
 Reference value :  3.30100e-05
 Reference value :  3.30471e-05
 Reference value :  3.32501e-05
 Reference value :  3.32503e-05
 Reference value :  3.32509e-05
 Reference value :  3.32523e-05
 Reference value :  3.32544e-05
 Reference value :  3.32576e-05
 Reference value :  3.32621e-05
 Reference value :  3.32867e-05
 Reference value :  3.35000e-05
 Reference value :  3.35013e-05
 Reference value :  3.35040e-05
 Reference value :  3.35055e-05
 Reference value :  3.35078e-05
 Reference value :  3.35100e-05
 Reference value :  3.35118e-05
 Reference value :  3.35156e-05
 Reference value :  3.35187e-05
 Reference value :  3.35225e-05
 Reference value :  3.35325e-05
 Reference value :  3.35467e-05
 Reference value :  3.36955e-05
 Reference value :  3.37502e-05
 Reference value :  3.37503e-05
 Reference value :  3.37507e-05
 Reference value :  3.37514e-05
 Reference value :  3.37524e-05
 Reference value :  3.37546e-05
 Reference value :  3.37565e-05
 Reference value :  3.37591e-05
 Reference value :  3.37704e-05
 Reference value :  3.38732e-05
 Reference value :  3.40000e-05
 Reference value :  3.40000e-05
 Reference value :  3.40000e-05
 Reference value :  3.40000e-05
 Reference value :  3.40001e-05
 Reference value :  3.40001e-05
 Reference value :  3.40002e-05
 Reference value :  3.40008e-05
 Reference value :  3.40017e-05
 Reference value :  3.40022e-05
 Reference value :  3.40040e-05
 Reference value :  3.40054e-05
 Reference value :  3.40068e-05
 Reference value :  3.40142e-05
 Reference value :  3.40270e-05
 Reference value :  3.40350e-05
 Reference value :  3.40396e-05
 Reference value :  3.40433e-05
 Reference value :  3.40508e-05
 Reference value :  3.40585e-05
 Reference value :  3.40838e-05
 Reference value :  3.41428e-05
 Reference value :  3.41980e-05
 Reference value :  3.42501e-05
 Reference value :  3.42502e-05
 Reference value :  3.42509e-05
 Reference value :  3.42530e-05
 Reference value :  3.42557e-05
 Reference value :  3.42704e-05
 Reference value :  3.45000e-05
 Reference value :  3.45002e-05
 Reference value :  3.45013e-05
 Reference value :  3.45033e-05
 Reference value :  3.45080e-05
 Reference value :  3.45137e-05
 Reference value :  3.45170e-05
 Reference value :  3.45308e-05
 Reference value :  3.46973e-05
 Reference value :  3.47502e-05
 Reference value :  3.47503e-05
 Reference value :  3.47514e-05
 Reference value :  3.47530e-05
 Reference value :  3.47544e-05
 Reference value :  3.47566e-05
 Reference value :  3.47591e-05
 Reference value :  3.47666e-05
 Reference value :  3.48172e-05
 Reference value :  3.50000e-05
 Reference value :  3.50001e-05
 Reference value :  3.50002e-05
 Reference value :  3.50005e-05
 Reference value :  3.50013e-05
 Reference value :  3.50022e-05
 Reference value :  3.50033e-05
 Reference value :  3.50044e-05
 Reference value :  3.50056e-05
 Reference value :  3.50061e-05
 Reference value :  3.50084e-05
 Reference value :  3.50107e-05
 Reference value :  3.50128e-05
 Reference value :  3.50155e-05
 Reference value :  3.50186e-05
 Reference value :  3.50214e-05
 Reference value :  3.50324e-05
 Reference value :  3.51987e-05
 Reference value :  3.52502e-05
 Reference value :  3.52503e-05
 Reference value :  3.52514e-05
 Reference value :  3.52538e-05
 Reference value :  3.52557e-05
 Reference value :  3.52614e-05
 Reference value :  3.52695e-05
 Reference value :  3.52774e-05
 Reference value :  3.53003e-05
 Reference value :  3.53459e-05
 Reference value :  3.54286e-05
 Reference value :  3.54542e-05
 Reference value :  3.54754e-05
 Reference value :  3.54883e-05
 Reference value :  3.55000e-05
 Reference value :  3.55001e-05
 Reference value :  3.55002e-05
 Reference value :  3.55008e-05
 Reference value :  3.55018e-05
 Reference value :  3.55033e-05
 Reference value :  3.55047e-05
 Reference value :  3.55073e-05
 Reference value :  3.55090e-05
 Reference value :  3.55125e-05
 Reference value :  3.55468e-05
 Reference value :  3.57501e-05
 Reference value :  3.57502e-05
 Reference value :  3.57503e-05
 Reference value :  3.57509e-05
 Reference value :  3.57518e-05
 Reference value :  3.57530e-05
 Reference value :  3.57544e-05
 Reference value :  3.57567e-05
 Reference value :  3.57593e-05
 Reference value :  3.57649e-05
 Reference value :  3.58080e-05
 Reference value :  3.60014e-05
 Reference value :  3.60055e-05
 Reference value :  3.60080e-05
 Reference value :  3.60113e-05
 Reference value :  3.60134e-05
 Reference value :  3.60160e-05
 Reference value :  3.60194e-05
 Reference value :  3.60372e-05
 Reference value :  3.60699e-05
 Reference value :  3.60817e-05
 Reference value :  3.60930e-05
 Reference value :  3.61747e-05
 Reference value :  3.62501e-05
 Reference value :  3.62502e-05
 Reference value :  3.62507e-05
 Reference value :  3.62519e-05
 Reference value :  3.62538e-05
 Reference value :  3.62557e-05
 Reference value :  3.62614e-05
 Reference value :  3.63394e-05
 Reference value :  3.65000e-05
 Reference value :  3.65001e-05
 Reference value :  3.65005e-05
 Reference value :  3.65018e-05
 Reference value :  3.65027e-05
 Reference value :  3.65038e-05
 Reference value :  3.65051e-05
 Reference value :  3.65082e-05
 Reference value :  3.65116e-05
 Reference value :  3.65443e-05
 Reference value :  3.67501e-05
 Reference value :  3.67502e-05
 Reference value :  3.67503e-05
 Reference value :  3.67514e-05
 Reference value :  3.67538e-05
 Reference value :  3.67567e-05
 Reference value :  3.67839e-05
 Reference value :  3.70000e-05
 Reference value :  3.70001e-05
 Reference value :  3.70005e-05
 Reference value :  3.70018e-05
 Reference value :  3.70027e-05
 Reference value :  3.70039e-05
 Reference value :  3.70044e-05
 Reference value :  3.70056e-05
 Reference value :  3.70061e-05
 Reference value :  3.70076e-05
 Reference value :  3.70100e-05
 Reference value :  3.70128e-05
 Reference value :  3.70139e-05
 Reference value :  3.70160e-05
 Reference value :  3.70170e-05
 Reference value :  3.70193e-05
 Reference value :  3.70253e-05
 Reference value :  3.71309e-05
 Reference value :  3.72502e-05
 Reference value :  3.72504e-05
 Reference value :  3.72514e-05
 Reference value :  3.72530e-05
 Reference value :  3.72544e-05
 Reference value :  3.72567e-05
 Reference value :  3.72655e-05
 Reference value :  3.74066e-05
 Reference value :  3.75001e-05
 Reference value :  3.75002e-05
 Reference value :  3.75003e-05
 Reference value :  3.75008e-05
 Reference value :  3.75013e-05
 Reference value :  3.75022e-05
 Reference value :  3.75032e-05
 Reference value :  3.75044e-05
 Reference value :  3.75062e-05
 Reference value :  3.75082e-05
 Reference value :  3.75092e-05
 Reference value :  3.75115e-05
 Reference value :  3.75205e-05
 Reference value :  3.75790e-05
 Reference value :  3.77501e-05
 Reference value :  3.77502e-05
 Reference value :  3.77503e-05
 Reference value :  3.77509e-05
 Reference value :  3.77518e-05
 Reference value :  3.77538e-05
 Reference value :  3.77551e-05
 Reference value :  3.77576e-05
 Reference value :  3.77655e-05
 Reference value :  3.78397e-05
 Reference value :  3.80000e-05
 Reference value :  3.80001e-05
 Reference value :  3.80002e-05
 Reference value :  3.80008e-05
 Reference value :  3.80018e-05
 Reference value :  3.80027e-05
 Reference value :  3.80039e-05
 Reference value :  3.80044e-05
 Reference value :  3.80056e-05
 Reference value :  3.80067e-05
 Reference value :  3.80100e-05
 Reference value :  3.80128e-05
 Reference value :  3.80149e-05
 Reference value :  3.80171e-05
 Reference value :  3.80211e-05
 Reference value :  3.80261e-05
 Reference value :  3.80304e-05
 Reference value :  3.80423e-05
 Reference value :  3.80494e-05
 Reference value :  3.80547e-05
 Reference value :  3.80640e-05
 Reference value :  3.80834e-05
 Reference value :  3.81179e-05
 Reference value :  3.82501e-05
 Reference value :  3.82502e-05
 Reference value :  3.82502e-05
 Reference value :  3.82504e-05
 Reference value :  3.82509e-05
 Reference value :  3.82518e-05
 Reference value :  3.82530e-05
 Reference value :  3.82544e-05
 Reference value :  3.82558e-05
 Reference value :  3.82594e-05
 Reference value :  3.82729e-05
 Reference value :  3.83384e-05
 Reference value :  3.85018e-05
 Reference value :  3.85074e-05
 Reference value :  3.85125e-05
 Reference value :  3.85314e-05
 Reference value :  3.86527e-05
 Reference value :  3.87501e-05
 Reference value :  3.87502e-05
 Reference value :  3.87507e-05
 Reference value :  3.87519e-05
 Reference value :  3.87530e-05
 Reference value :  3.87542e-05
 Reference value :  3.87555e-05
 Reference value :  3.87571e-05
 Reference value :  3.87591e-05
 Reference value :  3.87638e-05
 Reference value :  3.87824e-05
 Reference value :  3.88743e-05
 Reference value :  3.90000e-05
 Reference value :  3.90001e-05
 Reference value :  3.90002e-05
 Reference value :  3.90008e-05
 Reference value :  3.90018e-05
 Reference value :  3.90027e-05
 Reference value :  3.90039e-05
 Reference value :  3.90050e-05
 Reference value :  3.90061e-05
 Reference value :  3.90084e-05
 Reference value :  3.90107e-05
 Reference value :  3.90129e-05
 Reference value :  3.90154e-05
 Reference value :  3.90185e-05
 Reference value :  3.90230e-05
 Reference value :  3.90345e-05
 Reference value :  3.90378e-05
 Reference value :  3.90433e-05
 Reference value :  3.90495e-05
 Reference value :  3.90666e-05
 Reference value :  3.91115e-05
 Reference value :  3.91520e-05
 Reference value :  3.91851e-05
 Reference value :  3.92224e-05
 Reference value :  3.92501e-05
 Reference value :  3.92502e-05
 Reference value :  3.92503e-05
 Reference value :  3.92507e-05
 Reference value :  3.92514e-05
 Reference value :  3.92530e-05
 Reference value :  3.92544e-05
 Reference value :  3.92567e-05
 Reference value :  3.92660e-05
 Reference value :  3.93389e-05
 Reference value :  3.95000e-05
 Reference value :  3.95001e-05
 Reference value :  3.95003e-05
 Reference value :  3.95013e-05
 Reference value :  3.95022e-05
 Reference value :  3.95033e-05
 Reference value :  3.95056e-05
 Reference value :  3.95074e-05
 Reference value :  3.95100e-05
 Reference value :  3.95283e-05
 Reference value :  3.97501e-05
 Reference value :  3.97502e-05
 Reference value :  3.97509e-05
 Reference value :  3.97524e-05
 Reference value :  3.97544e-05
 Reference value :  3.97567e-05
 Reference value :  3.97584e-05
 Reference value :  3.97621e-05
 Reference value :  3.97874e-05
 Reference value :  3.99252e-05
 Reference value :  4.00000e-05
 Reference value :  4.00001e-05
 Reference value :  4.00001e-05
 Reference value :  4.00003e-05
 Reference value :  4.00008e-05
 Reference value :  4.00013e-05
 Reference value :  4.00022e-05
 Reference value :  4.00033e-05
 Reference value :  4.00044e-05
 Reference value :  4.00056e-05
 Reference value :  4.00061e-05
 Reference value :  4.00075e-05
 Reference value :  4.00097e-05
 Reference value :  4.00107e-05
 Reference value :  4.00128e-05
 Reference value :  4.00136e-05
 Reference value :  4.00155e-05
 Reference value :  4.00175e-05
 Reference value :  4.00196e-05
 Reference value :  4.00229e-05
 Reference value :  4.00248e-05
 Reference value :  4.00263e-05
 Reference value :  4.00293e-05
 Reference value :  4.00359e-05
 Reference value :  4.00602e-05
 Reference value :  4.02501e-05
 Reference value :  4.02502e-05
 Reference value :  4.02502e-05
 Reference value :  4.02504e-05
 Reference value :  4.02514e-05
 Reference value :  4.02530e-05
 Reference value :  4.02544e-05
 Reference value :  4.02557e-05
 Reference value :  4.02592e-05
 Reference value :  4.02839e-05
 Reference value :  4.05000e-05
 Reference value :  4.05001e-05
 Reference value :  4.05002e-05
 Reference value :  4.05008e-05
 Reference value :  4.05022e-05
 Reference value :  4.05038e-05
 Reference value :  4.05072e-05
 Reference value :  4.05104e-05
 Reference value :  4.05205e-05
 Reference value :  4.07501e-05
 Reference value :  4.07502e-05
 Reference value :  4.07503e-05
 Reference value :  4.07514e-05
 Reference value :  4.07538e-05
 Reference value :  4.07558e-05
 Reference value :  4.07614e-05
 Reference value :  4.08048e-05
 Reference value :  4.10000e-05
 Reference value :  4.10015e-05
 Reference value :  4.10045e-05
 Reference value :  4.10061e-05
 Reference value :  4.10092e-05
 Reference value :  4.10106e-05
 Reference value :  4.10120e-05
 Reference value :  4.10145e-05
 Reference value :  4.10166e-05
 Reference value :  4.10190e-05
 Reference value :  4.10222e-05
 Reference value :  4.10423e-05
 Reference value :  4.12016e-05
 Reference value :  4.12501e-05
 Reference value :  4.12502e-05
 Reference value :  4.12503e-05
 Reference value :  4.12509e-05
 Reference value :  4.12519e-05
 Reference value :  4.12530e-05
 Reference value :  4.12544e-05
 Reference value :  4.12557e-05
 Reference value :  4.12576e-05
 Reference value :  4.12655e-05
 Reference value :  4.13049e-05
 Reference value :  4.15000e-05
 Reference value :  4.15000e-05
 Reference value :  4.15001e-05
 Reference value :  4.15001e-05
 Reference value :  4.15002e-05
 Reference value :  4.15005e-05
 Reference value :  4.15013e-05
 Reference value :  4.15022e-05
 Reference value :  4.15032e-05
 Reference value :  4.15044e-05
 Reference value :  4.15072e-05
 Reference value :  4.15093e-05
 Reference value :  4.15116e-05
 Reference value :  4.15451e-05
 Reference value :  4.17501e-05
 Reference value :  4.17503e-05
 Reference value :  4.17514e-05
 Reference value :  4.17530e-05
 Reference value :  4.17544e-05
 Reference value :  4.17558e-05
 Reference value :  4.17592e-05
 Reference value :  4.17725e-05
 Reference value :  4.19050e-05
 Reference value :  4.20000e-05
 Reference value :  4.20001e-05
 Reference value :  4.20005e-05
 Reference value :  4.20018e-05
 Reference value :  4.20027e-05
 Reference value :  4.20044e-05
 Reference value :  4.20056e-05
 Reference value :  4.20067e-05
 Reference value :  4.20103e-05
 Reference value :  4.20442e-05
 Reference value :  4.22501e-05
 Reference value :  4.22502e-05
 Reference value :  4.22504e-05
 Reference value :  4.22514e-05
 Reference value :  4.22524e-05
 Reference value :  4.22539e-05
 Reference value :  4.22566e-05
 Reference value :  4.22618e-05
 Reference value :  4.23256e-05
 Reference value :  4.25000e-05
 Reference value :  4.25000e-05
 Reference value :  4.25000e-05
 Reference value :  4.25001e-05
 Reference value :  4.25002e-05
 Reference value :  4.25012e-05
 Reference value :  4.25022e-05
 Reference value :  4.25040e-05
 Reference value :  4.25054e-05
 Reference value :  4.25068e-05
 Reference value :  4.25142e-05
 Reference value :  4.25271e-05
 Reference value :  4.25315e-05
 Reference value :  4.25373e-05
 Reference value :  4.25404e-05
 Reference value :  4.25427e-05
 Reference value :  4.25502e-05
 Reference value :  4.25613e-05
 Reference value :  4.25997e-05
 Reference value :  4.26928e-05
 Reference value :  4.27252e-05
 Reference value :  4.27501e-05
 Reference value :  4.27502e-05
 Reference value :  4.27503e-05
 Reference value :  4.27507e-05
 Reference value :  4.27514e-05
 Reference value :  4.27530e-05
 Reference value :  4.27544e-05
 Reference value :  4.27557e-05
 Reference value :  4.27593e-05
 Reference value :  4.27715e-05
 Reference value :  4.27980e-05
 Reference value :  4.29778e-05
 Reference value :  4.30001e-05
 Reference value :  4.30002e-05
 Reference value :  4.30013e-05
 Reference value :  4.30026e-05
 Reference value :  4.30057e-05
 Reference value :  4.30093e-05
 Reference value :  4.30137e-05
 Reference value :  4.30151e-05
 Reference value :  4.30211e-05
 Reference value :  4.30524e-05
 Reference value :  4.32501e-05
 Reference value :  4.32502e-05
 Reference value :  4.32504e-05
 Reference value :  4.32509e-05
 Reference value :  4.32518e-05
 Reference value :  4.32538e-05
 Reference value :  4.32551e-05
 Reference value :  4.32574e-05
 Reference value :  4.32601e-05
 Reference value :  4.32666e-05
 Reference value :  4.32854e-05
 Reference value :  4.33901e-05
 Reference value :  4.35004e-05
 Reference value :  4.35018e-05
 Reference value :  4.35034e-05
 Reference value :  4.35047e-05
 Reference value :  4.35058e-05
 Reference value :  4.35091e-05
 Reference value :  4.35110e-05
 Reference value :  4.35120e-05
 Reference value :  4.35146e-05
 Reference value :  4.35167e-05
 Reference value :  4.35203e-05
 Reference value :  4.35398e-05
 Reference value :  4.36926e-05
 Reference value :  4.37502e-05
 Reference value :  4.37503e-05
 Reference value :  4.37509e-05
 Reference value :  4.37524e-05
 Reference value :  4.37544e-05
 Reference value :  4.37576e-05
 Reference value :  4.37642e-05
 Reference value :  4.37680e-05
 Reference value :  4.37748e-05
 Reference value :  4.37952e-05
 Reference value :  4.38087e-05
 Reference value :  4.38533e-05
 Reference value :  4.39175e-05
 Reference value :  4.39440e-05
 Reference value :  4.39608e-05
 Reference value :  4.39830e-05
 Reference value :  4.40000e-05
 Reference value :  4.40001e-05
 Reference value :  4.40002e-05
 Reference value :  4.40008e-05
 Reference value :  4.40018e-05
 Reference value :  4.40027e-05
 Reference value :  4.40040e-05
 Reference value :  4.40057e-05
 Reference value :  4.40075e-05
 Reference value :  4.40092e-05
 Reference value :  4.40112e-05
 Reference value :  4.40192e-05
 Reference value :  4.42501e-05
 Reference value :  4.42502e-05
 Reference value :  4.42502e-05
 Reference value :  4.42507e-05
 Reference value :  4.42514e-05
 Reference value :  4.42524e-05
 Reference value :  4.42530e-05
 Reference value :  4.42538e-05
 Reference value :  4.42544e-05
 Reference value :  4.42558e-05
 Reference value :  4.42584e-05
 Reference value :  4.42648e-05
 Reference value :  4.44261e-05
 Reference value :  4.45001e-05
 Reference value :  4.45002e-05
 Reference value :  4.45013e-05
 Reference value :  4.45022e-05
 Reference value :  4.45039e-05
 Reference value :  4.45050e-05
 Reference value :  4.45061e-05
 Reference value :  4.45084e-05
 Reference value :  4.45107e-05
 Reference value :  4.45128e-05
 Reference value :  4.45137e-05
 Reference value :  4.45155e-05
 Reference value :  4.45186e-05
 Reference value :  4.45229e-05
 Reference value :  4.45485e-05
 Reference value :  4.45696e-05
 Reference value :  4.45773e-05
 Reference value :  4.45850e-05
 Reference value :  4.46002e-05
 Reference value :  4.46452e-05
 Reference value :  4.47502e-05
 Reference value :  4.47504e-05
 Reference value :  4.47518e-05
 Reference value :  4.47544e-05
 Reference value :  4.47576e-05
 Reference value :  4.47725e-05
 Reference value :  4.50000e-05
 Reference value :  4.50001e-05
 Reference value :  4.50002e-05
 Reference value :  4.50008e-05
 Reference value :  4.50022e-05
 Reference value :  4.50032e-05
 Reference value :  4.50044e-05
 Reference value :  4.50062e-05
 Reference value :  4.50082e-05
 Reference value :  4.50116e-05
 Reference value :  4.50288e-05
 Reference value :  4.51454e-05
 Reference value :  4.52501e-05
 Reference value :  4.52502e-05
 Reference value :  4.52503e-05
 Reference value :  4.52509e-05
 Reference value :  4.52518e-05
 Reference value :  4.52530e-05
 Reference value :  4.52544e-05
 Reference value :  4.52567e-05
 Reference value :  4.52614e-05
 Reference value :  4.53049e-05
 Reference value :  4.55000e-05
 Reference value :  4.55001e-05
 Reference value :  4.55002e-05
 Reference value :  4.55008e-05
 Reference value :  4.55022e-05
 Reference value :  4.55033e-05
 Reference value :  4.55044e-05
 Reference value :  4.55056e-05
 Reference value :  4.55067e-05
 Reference value :  4.55100e-05
 Reference value :  4.55128e-05
 Reference value :  4.55139e-05
 Reference value :  4.55160e-05
 Reference value :  4.55170e-05
 Reference value :  4.55193e-05
 Reference value :  4.55253e-05
 Reference value :  4.55542e-05
 Reference value :  4.55998e-05
 Reference value :  4.57205e-05
 Reference value :  4.57501e-05
 Reference value :  4.57502e-05
 Reference value :  4.57503e-05
 Reference value :  4.57509e-05
 Reference value :  4.57518e-05
 Reference value :  4.57530e-05
 Reference value :  4.57544e-05
 Reference value :  4.57557e-05
 Reference value :  4.57576e-05
 Reference value :  4.57655e-05
 Reference value :  4.58050e-05
 Reference value :  4.60000e-05
 Reference value :  4.60018e-05
 Reference value :  4.60053e-05
 Reference value :  4.60071e-05
 Reference value :  4.60103e-05
 Reference value :  4.60134e-05
 Reference value :  4.60216e-05
 Reference value :  4.60557e-05
 Reference value :  4.62501e-05
 Reference value :  4.62502e-05
 Reference value :  4.62502e-05
 Reference value :  4.62504e-05
 Reference value :  4.62514e-05
 Reference value :  4.62530e-05
 Reference value :  4.62542e-05
 Reference value :  4.62563e-05
 Reference value :  4.62608e-05
 Reference value :  4.62963e-05
 Reference value :  4.65000e-05
 Reference value :  4.65001e-05
 Reference value :  4.65002e-05
 Reference value :  4.65008e-05
 Reference value :  4.65018e-05
 Reference value :  4.65027e-05
 Reference value :  4.65039e-05
 Reference value :  4.65044e-05
 Reference value :  4.65056e-05
 Reference value :  4.65061e-05
 Reference value :  4.65076e-05
 Reference value :  4.65100e-05
 Reference value :  4.65128e-05
 Reference value :  4.65149e-05
 Reference value :  4.65171e-05
 Reference value :  4.65211e-05
 Reference value :  4.65306e-05
 Reference value :  4.65509e-05
 Reference value :  4.65612e-05
 Reference value :  4.65844e-05
 Reference value :  4.66418e-05
 Reference value :  4.67501e-05
 Reference value :  4.67502e-05
 Reference value :  4.67503e-05
 Reference value :  4.67507e-05
 Reference value :  4.67514e-05
 Reference value :  4.67530e-05
 Reference value :  4.67551e-05
 Reference value :  4.67594e-05
 Reference value :  4.68045e-05
[...]
 Reference value :  1.66425e-04
 Reference value :  1.66500e-04
 Reference value :  1.66500e-04
 Reference value :  1.66501e-04
 Reference value :  1.66502e-04
 Reference value :  1.66503e-04
 Reference value :  1.66504e-04
 Reference value :  1.66506e-04
 Reference value :  1.66507e-04
 Reference value :  1.66508e-04
 Reference value :  1.66511e-04
 Reference value :  1.66513e-04
 Reference value :  1.66514e-04
 Reference value :  1.66518e-04
 Reference value :  1.66521e-04
 Reference value :  1.66525e-04
 Reference value :  1.66526e-04
 Reference value :  1.66530e-04
 Reference value :  1.66541e-04
 Reference value :  1.66570e-04
 Reference value :  1.66711e-04
 Reference value :  1.66750e-04
 Reference value :  1.66750e-04
 Reference value :  1.66750e-04
 Reference value :  1.66751e-04
 Reference value :  1.66752e-04
 Reference value :  1.66754e-04
 Reference value :  1.66755e-04
 Reference value :  1.66758e-04
 Reference value :  1.66772e-04
 Reference value :  1.66907e-04
 Reference value :  1.67000e-04
 Reference value :  1.67000e-04
 Reference value :  1.67000e-04
 Reference value :  1.67000e-04
 Reference value :  1.67001e-04
 Reference value :  1.67002e-04
 Reference value :  1.67003e-04
 Reference value :  1.67004e-04
 Reference value :  1.67006e-04
 Reference value :  1.67008e-04
 Reference value :  1.67010e-04
 Reference value :  1.67013e-04
 Reference value :  1.67250e-04
 Reference value :  1.67250e-04
 Reference value :  1.67250e-04
 Reference value :  1.67250e-04
 Reference value :  1.67251e-04
 Reference value :  1.67253e-04
 Reference value :  1.67255e-04
 Reference value :  1.67258e-04
 Reference value :  1.67273e-04
 Reference value :  1.67500e-04
 Reference value :  1.67500e-04
 Reference value :  1.67501e-04
 Reference value :  1.67503e-04
 Reference value :  1.67504e-04
 Reference value :  1.67506e-04
 Reference value :  1.67506e-04
 Reference value :  1.67508e-04
 Reference value :  1.67511e-04
 Reference value :  1.67513e-04
 Reference value :  1.67515e-04
 Reference value :  1.67517e-04
 Reference value :  1.67519e-04
 Reference value :  1.67525e-04
 Reference value :  1.67550e-04
 Reference value :  1.67682e-04
 Reference value :  1.67750e-04
 Reference value :  1.67750e-04
 Reference value :  1.67750e-04
 Reference value :  1.67751e-04
 Reference value :  1.67753e-04
 Reference value :  1.67754e-04
 Reference value :  1.67757e-04
 Reference value :  1.67766e-04
 Reference value :  1.67840e-04
 Reference value :  1.68000e-04
 Reference value :  1.68000e-04
 Reference value :  1.68000e-04
 Reference value :  1.68001e-04
 Reference value :  1.68002e-04
 Reference value :  1.68003e-04
 Reference value :  1.68004e-04
 Reference value :  1.68005e-04
 Reference value :  1.68008e-04
 Reference value :  1.68012e-04
 Reference value :  1.68029e-04
 Reference value :  1.68250e-04
 Reference value :  1.68250e-04
 Reference value :  1.68250e-04
 Reference value :  1.68251e-04
 Reference value :  1.68253e-04
 Reference value :  1.68254e-04
 Reference value :  1.68256e-04
 Reference value :  1.68259e-04
 Reference value :  1.68284e-04
 Reference value :  1.68500e-04
 Reference value :  1.68500e-04
 Reference value :  1.68500e-04
 Reference value :  1.68500e-04
 Reference value :  1.68501e-04
 Reference value :  1.68502e-04
 Reference value :  1.68503e-04
 Reference value :  1.68504e-04
 Reference value :  1.68506e-04
 Reference value :  1.68506e-04
 Reference value :  1.68508e-04
 Reference value :  1.68511e-04
 Reference value :  1.68513e-04
 Reference value :  1.68515e-04
 Reference value :  1.68517e-04
 Reference value :  1.68519e-04
 Reference value :  1.68526e-04
 Reference value :  1.68551e-04
 Reference value :  1.68654e-04
 Reference value :  1.68750e-04
 Reference value :  1.68750e-04
 Reference value :  1.68750e-04
 Reference value :  1.68751e-04
 Reference value :  1.68752e-04
 Reference value :  1.68753e-04
 Reference value :  1.68754e-04
 Reference value :  1.68756e-04
 Reference value :  1.68759e-04
 Reference value :  1.68772e-04
 Reference value :  1.68840e-04
 Reference value :  1.68971e-04
 Reference value :  1.69000e-04
 Reference value :  1.69000e-04
 Reference value :  1.69000e-04
 Reference value :  1.69001e-04
 Reference value :  1.69002e-04
 Reference value :  1.69004e-04
 Reference value :  1.69006e-04
 Reference value :  1.69007e-04
 Reference value :  1.69009e-04
 Reference value :  1.69015e-04
 Reference value :  1.69083e-04
 Reference value :  1.69250e-04
 Reference value :  1.69250e-04
 Reference value :  1.69250e-04
 Reference value :  1.69251e-04
 Reference value :  1.69253e-04
 Reference value :  1.69254e-04
 Reference value :  1.69257e-04
 Reference value :  1.69259e-04
 Reference value :  1.69268e-04
 Reference value :  1.69347e-04
 Reference value :  1.69500e-04
 Reference value :  1.69500e-04
 Reference value :  1.69500e-04
 Reference value :  1.69501e-04
 Reference value :  1.69502e-04
 Reference value :  1.69503e-04
 Reference value :  1.69504e-04
 Reference value :  1.69506e-04
 Reference value :  1.69507e-04
 Reference value :  1.69508e-04
 Reference value :  1.69510e-04
 Reference value :  1.69512e-04
 Reference value :  1.69515e-04
 Reference value :  1.69518e-04
 Reference value :  1.69521e-04
 Reference value :  1.69525e-04
 Reference value :  1.69535e-04
 Reference value :  1.69579e-04
 Reference value :  1.69750e-04
 Reference value :  1.69750e-04
 Reference value :  1.69750e-04
 Reference value :  1.69751e-04
 Reference value :  1.69751e-04
 Reference value :  1.69753e-04
 Reference value :  1.69755e-04
 Reference value :  1.69758e-04
 Reference value :  1.69765e-04
 Reference value :  1.69826e-04
 Reference value :  1.70000e-04
 Reference value :  1.70000e-04
 Reference value :  1.70000e-04
 Reference value :  1.70000e-04
 Reference value :  1.70000e-04
 Reference value :  1.70000e-04
 Reference value :  1.70001e-04
 Reference value :  1.70002e-04
 Reference value :  1.70005e-04
 Reference value :  1.70006e-04
 Reference value :  1.70009e-04
 Reference value :  1.70021e-04
 Reference value :  1.70027e-04
 Reference value :  1.70032e-04
 Reference value :  1.70037e-04
 Reference value :  1.70041e-04
 Reference value :  1.70049e-04
 Reference value :  1.70060e-04
 Reference value :  1.70105e-04
 Reference value :  1.70212e-04
 Reference value :  1.70245e-04
 Reference value :  1.70250e-04
 Reference value :  1.70250e-04
 Reference value :  1.70251e-04
 Reference value :  1.70254e-04
 Reference value :  1.70256e-04
 Reference value :  1.70259e-04
 Reference value :  1.70266e-04
 Reference value :  1.70277e-04
 Reference value :  1.70302e-04
 Reference value :  1.70500e-04
 Reference value :  1.70500e-04
 Reference value :  1.70500e-04
 Reference value :  1.70500e-04
 Reference value :  1.70501e-04
 Reference value :  1.70502e-04
 Reference value :  1.70504e-04
 Reference value :  1.70507e-04
 Reference value :  1.70508e-04
 Reference value :  1.70511e-04
 Reference value :  1.70514e-04
 Reference value :  1.70515e-04
 Reference value :  1.70521e-04
 Reference value :  1.70552e-04
 Reference value :  1.70750e-04
 Reference value :  1.70750e-04
 Reference value :  1.70750e-04
 Reference value :  1.70750e-04
 Reference value :  1.70751e-04
 Reference value :  1.70753e-04
 Reference value :  1.70754e-04
 Reference value :  1.70757e-04
 Reference value :  1.70758e-04
 Reference value :  1.70762e-04
 Reference value :  1.70777e-04
 Reference value :  1.70845e-04
 Reference value :  1.71000e-04
 Reference value :  1.71000e-04
 Reference value :  1.71000e-04
 Reference value :  1.71000e-04
 Reference value :  1.71001e-04
 Reference value :  1.71002e-04
 Reference value :  1.71003e-04
 Reference value :  1.71004e-04
 Reference value :  1.71006e-04
 Reference value :  1.71007e-04
 Reference value :  1.71010e-04
 Reference value :  1.71011e-04
 Reference value :  1.71013e-04
 Reference value :  1.71015e-04
 Reference value :  1.71016e-04
 Reference value :  1.71019e-04
 Reference value :  1.71021e-04
 Reference value :  1.71032e-04
 Reference value :  1.71085e-04
 Reference value :  1.71245e-04
 Reference value :  1.71250e-04
 Reference value :  1.71250e-04
 Reference value :  1.71250e-04
 Reference value :  1.71251e-04
 Reference value :  1.71252e-04
 Reference value :  1.71254e-04
 Reference value :  1.71255e-04
 Reference value :  1.71258e-04
 Reference value :  1.71272e-04
 Reference value :  1.71298e-04
 Reference value :  1.71365e-04
 Reference value :  1.71469e-04
 Reference value :  1.71500e-04
 Reference value :  1.71500e-04
 Reference value :  1.71500e-04
 Reference value :  1.71500e-04
 Reference value :  1.71501e-04
 Reference value :  1.71502e-04
 Reference value :  1.71504e-04
 Reference value :  1.71506e-04
 Reference value :  1.71507e-04
 Reference value :  1.71510e-04
 Reference value :  1.71518e-04
 Reference value :  1.71532e-04
 Reference value :  1.71627e-04
 Reference value :  1.71750e-04
 Reference value :  1.71750e-04
 Reference value :  1.71750e-04
 Reference value :  1.71751e-04
 Reference value :  1.71752e-04
 Reference value :  1.71753e-04
 Reference value :  1.71754e-04
 Reference value :  1.71757e-04
 Reference value :  1.71758e-04
 Reference value :  1.71762e-04
 Reference value :  1.71775e-04
 Reference value :  1.71910e-04
 Reference value :  1.72000e-04
 Reference value :  1.72000e-04
 Reference value :  1.72000e-04
 Reference value :  1.72001e-04
 Reference value :  1.72002e-04
 Reference value :  1.72002e-04
 Reference value :  1.72003e-04
 Reference value :  1.72004e-04
 Reference value :  1.72006e-04
 Reference value :  1.72007e-04
 Reference value :  1.72010e-04
 Reference value :  1.72012e-04
 Reference value :  1.72014e-04
 Reference value :  1.72016e-04
 Reference value :  1.72020e-04
 Reference value :  1.72031e-04
 Reference value :  1.72058e-04
 Reference value :  1.72069e-04
 Reference value :  1.72076e-04
 Reference value :  1.72089e-04
 Reference value :  1.72147e-04
 Reference value :  1.72250e-04
 Reference value :  1.72250e-04
 Reference value :  1.72250e-04
 Reference value :  1.72251e-04
 Reference value :  1.72252e-04
 Reference value :  1.72254e-04
 Reference value :  1.72256e-04
 Reference value :  1.72261e-04
 Reference value :  1.72407e-04
 Reference value :  1.72500e-04
 Reference value :  1.72500e-04
 Reference value :  1.72500e-04
 Reference value :  1.72502e-04
 Reference value :  1.72503e-04
 Reference value :  1.72504e-04
 Reference value :  1.72505e-04
 Reference value :  1.72508e-04
 Reference value :  1.72512e-04
 Reference value :  1.72529e-04
 Reference value :  1.72750e-04
 Reference value :  1.72750e-04
 Reference value :  1.72750e-04
 Reference value :  1.72751e-04
 Reference value :  1.72752e-04
 Reference value :  1.72753e-04
 Reference value :  1.72754e-04
 Reference value :  1.72754e-04
 Reference value :  1.72756e-04
 Reference value :  1.72759e-04
 Reference value :  1.72773e-04
 Reference value :  1.72840e-04
 Reference value :  1.73000e-04
 Reference value :  1.73000e-04
 Reference value :  1.73000e-04
 Reference value :  1.73000e-04
 Reference value :  1.73001e-04
 Reference value :  1.73002e-04
 Reference value :  1.73003e-04
 Reference value :  1.73004e-04
 Reference value :  1.73006e-04
 Reference value :  1.73007e-04
 Reference value :  1.73010e-04
 Reference value :  1.73013e-04
 Reference value :  1.73015e-04
 Reference value :  1.73017e-04
 Reference value :  1.73019e-04
 Reference value :  1.73025e-04
 Reference value :  1.73054e-04
 Reference value :  1.73153e-04
 Reference value :  1.73250e-04
 Reference value :  1.73250e-04
 Reference value :  1.73250e-04
 Reference value :  1.73251e-04
 Reference value :  1.73253e-04
 Reference value :  1.73254e-04
 Reference value :  1.73257e-04
 Reference value :  1.73261e-04
 Reference value :  1.73305e-04
 Reference value :  1.73500e-04
 Reference value :  1.73500e-04
 Reference value :  1.73500e-04
 Reference value :  1.73501e-04
 Reference value :  1.73502e-04
 Reference value :  1.73503e-04
 Reference value :  1.73505e-04
 Reference value :  1.73508e-04
 Reference value :  1.73512e-04
 Reference value :  1.73529e-04
 Reference value :  1.73750e-04
 Reference value :  1.73750e-04
 Reference value :  1.73750e-04
 Reference value :  1.73751e-04
 Reference value :  1.73751e-04
 Reference value :  1.73752e-04
 Reference value :  1.73754e-04
 Reference value :  1.73755e-04
 Reference value :  1.73759e-04
 Reference value :  1.73805e-04
 Reference value :  1.74000e-04
 Reference value :  1.74000e-04
 Reference value :  1.74000e-04
 Reference value :  1.74001e-04
 Reference value :  1.74002e-04
 Reference value :  1.74003e-04
 Reference value :  1.74004e-04
 Reference value :  1.74006e-04
 Reference value :  1.74010e-04
 Reference value :  1.74013e-04
 Reference value :  1.74016e-04
 Reference value :  1.74019e-04
 Reference value :  1.74032e-04
 Reference value :  1.74048e-04
 Reference value :  1.74067e-04
 Reference value :  1.74080e-04
 Reference value :  1.74111e-04
 Reference value :  1.74250e-04
 Reference value :  1.74250e-04
 Reference value :  1.74250e-04
 Reference value :  1.74251e-04
 Reference value :  1.74253e-04
 Reference value :  1.74255e-04
 Reference value :  1.74259e-04
 Reference value :  1.74305e-04
 Reference value :  1.74500e-04
 Reference value :  1.74500e-04
 Reference value :  1.74501e-04
 Reference value :  1.74502e-04
 Reference value :  1.74503e-04
 Reference value :  1.74504e-04
 Reference value :  1.74506e-04
 Reference value :  1.74507e-04
 Reference value :  1.74509e-04
 Reference value :  1.74511e-04
 Reference value :  1.74520e-04
 Reference value :  1.74585e-04
 Reference value :  1.74750e-04
 Reference value :  1.74750e-04
 Reference value :  1.74750e-04
 Reference value :  1.74750e-04
 Reference value :  1.74751e-04
 Reference value :  1.74751e-04
 Reference value :  1.74752e-04
 Reference value :  1.74754e-04
 Reference value :  1.74755e-04
 Reference value :  1.74757e-04
 Reference value :  1.74758e-04
 Reference value :  1.74761e-04
 Reference value :  1.74768e-04
 Reference value :  1.74808e-04
 Reference value :  1.75000e-04
 Reference value :  1.75000e-04
 Reference value :  1.75000e-04
 Reference value :  1.75000e-04
 Reference value :  1.75000e-04
 Reference value :  1.75001e-04
 Reference value :  1.75002e-04
 Reference value :  1.75002e-04
 Reference value :  1.75003e-04
 Reference value :  1.75004e-04
 Reference value :  1.75006e-04
 Reference value :  1.75006e-04
 Reference value :  1.75008e-04
 Reference value :  1.75010e-04
 Reference value :  1.75011e-04
 Reference value :  1.75014e-04
 Reference value :  1.75016e-04
 Reference value :  1.75020e-04
 Reference value :  1.75023e-04
 Reference value :  1.75026e-04
 Reference value :  1.75029e-04
 Reference value :  1.75037e-04
 Reference value :  1.75056e-04
 Reference value :  1.75096e-04
 Reference value :  1.75250e-04
 Reference value :  1.75250e-04
 Reference value :  1.75250e-04
 Reference value :  1.75251e-04
 Reference value :  1.75251e-04
 Reference value :  1.75253e-04
 Reference value :  1.75254e-04
 Reference value :  1.75257e-04
 Reference value :  1.75261e-04
 Reference value :  1.75305e-04
 Reference value :  1.75500e-04
 Reference value :  1.75500e-04
 Reference value :  1.75500e-04
 Reference value :  1.75500e-04
 Reference value :  1.75500e-04
 Reference value :  1.75501e-04
 Reference value :  1.75502e-04
 Reference value :  1.75503e-04
 Reference value :  1.75504e-04
 Reference value :  1.75506e-04
 Reference value :  1.75508e-04
 Reference value :  1.75510e-04
 Reference value :  1.75512e-04
 Reference value :  1.75516e-04
 Reference value :  1.75545e-04
 Reference value :  1.75750e-04
 Reference value :  1.75750e-04
 Reference value :  1.75750e-04
 Reference value :  1.75750e-04
 Reference value :  1.75751e-04
 Reference value :  1.75752e-04
 Reference value :  1.75753e-04
 Reference value :  1.75754e-04
 Reference value :  1.75757e-04
 Reference value :  1.75761e-04
 Reference value :  1.75784e-04
 Reference value :  1.75905e-04
 Reference value :  1.76000e-04
 Reference value :  1.76000e-04
 Reference value :  1.76000e-04
 Reference value :  1.76001e-04
 Reference value :  1.76002e-04
 Reference value :  1.76003e-04
 Reference value :  1.76004e-04
 Reference value :  1.76005e-04
 Reference value :  1.76006e-04
 Reference value :  1.76007e-04
 Reference value :  1.76011e-04
 Reference value :  1.76014e-04
 Reference value :  1.76016e-04
 Reference value :  1.76019e-04
 Reference value :  1.76025e-04
 Reference value :  1.76050e-04
 Reference value :  1.76191e-04
 Reference value :  1.76250e-04
 Reference value :  1.76250e-04
 Reference value :  1.76251e-04
 Reference value :  1.76251e-04
 Reference value :  1.76252e-04
 Reference value :  1.76254e-04
 Reference value :  1.76255e-04
 Reference value :  1.76258e-04
 Reference value :  1.76273e-04
 Reference value :  1.76406e-04
 Reference value :  1.76500e-04
 Reference value :  1.76500e-04
 Reference value :  1.76500e-04
 Reference value :  1.76501e-04
 Reference value :  1.76503e-04
 Reference value :  1.76504e-04
 Reference value :  1.76505e-04
 Reference value :  1.76507e-04
 Reference value :  1.76509e-04
 Reference value :  1.76512e-04
 Reference value :  1.76520e-04
 Reference value :  1.76579e-04
 Reference value :  1.76750e-04
 Reference value :  1.76750e-04
 Reference value :  1.76750e-04
 Reference value :  1.76750e-04
 Reference value :  1.76751e-04
 Reference value :  1.76752e-04
 Reference value :  1.76753e-04
 Reference value :  1.76754e-04
 Reference value :  1.76757e-04
 Reference value :  1.76761e-04
 Reference value :  1.76805e-04
 Reference value :  1.77000e-04
 Reference value :  1.77000e-04
 Reference value :  1.77000e-04
 Reference value :  1.77000e-04
 Reference value :  1.77001e-04
 Reference value :  1.77002e-04
 Reference value :  1.77003e-04
 Reference value :  1.77004e-04
 Reference value :  1.77006e-04
 Reference value :  1.77007e-04
 Reference value :  1.77010e-04
 Reference value :  1.77013e-04
 Reference value :  1.77015e-04
 Reference value :  1.77017e-04
 Reference value :  1.77021e-04
 Reference value :  1.77038e-04
 Reference value :  1.77171e-04
 Reference value :  1.77250e-04
 Reference value :  1.77250e-04
 Reference value :  1.77250e-04
 Reference value :  1.77251e-04
 Reference value :  1.77253e-04
 Reference value :  1.77254e-04
 Reference value :  1.77256e-04
 Reference value :  1.77258e-04
 Reference value :  1.77265e-04
 Reference value :  1.77340e-04
 Reference value :  1.77500e-04
 Reference value :  1.77500e-04
 Reference value :  1.77500e-04
 Reference value :  1.77501e-04
 Reference value :  1.77502e-04
 Reference value :  1.77503e-04
 Reference value :  1.77504e-04
 Reference value :  1.77506e-04
 Reference value :  1.77508e-04
 Reference value :  1.77512e-04
 Reference value :  1.77529e-04
 Reference value :  1.77644e-04
 Reference value :  1.77750e-04
 Reference value :  1.77750e-04
 Reference value :  1.77750e-04
 Reference value :  1.77751e-04
 Reference value :  1.77751e-04
 Reference value :  1.77753e-04
 Reference value :  1.77754e-04
 Reference value :  1.77756e-04
 Reference value :  1.77759e-04
 Reference value :  1.77784e-04
 Reference value :  1.78000e-04
 Reference value :  1.78000e-04
 Reference value :  1.78000e-04
 Reference value :  1.78000e-04
 Reference value :  1.78000e-04
 Reference value :  1.78001e-04
 Reference value :  1.78002e-04
 Reference value :  1.78003e-04
 Reference value :  1.78004e-04
 Reference value :  1.78006e-04
 Reference value :  1.78006e-04
 Reference value :  1.78008e-04
 Reference value :  1.78009e-04
 Reference value :  1.78014e-04
 Reference value :  1.78079e-04
 Reference value :  1.78250e-04
 Reference value :  1.78250e-04
 Reference value :  1.78250e-04
 Reference value :  1.78251e-04
 Reference value :  1.78251e-04
 Reference value :  1.78254e-04
 Reference value :  1.78257e-04
 Reference value :  1.78281e-04
No. of Data Rows : 26029
ngspice-44 done
