
Note: Compatibility modes selected: hs a


Circuit: ** sch_path: /home/ece/cace/sar-adc-using-sky130-pdk/runs/run_2025-09-12_21-15-20/parameters/dnl/run_2/sar_output_dnl.sch

option SCALE: Scale is set to 1e-06 for instance and model parameters
option SCALE: Scale is set to 1e-06 for instance and model parameters
option SCALE: Scale is set to 1e-06 for instance and model parameters
option SCALE: Scale is set to 1e-06 for instance and model parameters
Doing analysis at TEMP = 27.000000 and TNOM = 27.000000

Using KLU as Direct Linear Solver
Operating point simulation skipped by 'uic',
  now using transient initial conditions.
 Reference value :  1.00000e-12
 Reference value :  1.08400e-12
 Reference value :  1.72461e-12
 Reference value :  6.52468e-12
 Reference value :  2.08843e-11
 Reference value :  1.00000e-10
 Reference value :  1.39058e-10
 Reference value :  4.51520e-10
 Reference value :  1.35964e-09
 Reference value :  3.19631e-09
 Reference value :  5.07165e-09
 Reference value :  6.75877e-09
 Reference value :  8.30229e-09
 Reference value :  1.35186e-08
 Reference value :  2.43037e-08
 Reference value :  3.34525e-08
 Reference value :  5.33881e-08
 Reference value :  1.48359e-07
 Reference value :  2.50110e-07
 Reference value :  2.50200e-07
 Reference value :  2.50254e-07
 Reference value :  2.50528e-07
 Reference value :  2.51271e-07
 Reference value :  2.52085e-07
 Reference value :  2.53198e-07
 Reference value :  2.54738e-07
 Reference value :  2.58683e-07
 Reference value :  2.79421e-07
 Reference value :  3.80477e-07
 Reference value :  5.00010e-07
 Reference value :  5.00070e-07
 Reference value :  5.00156e-07
 Reference value :  5.00827e-07
 Reference value :  5.01532e-07
 Reference value :  5.02818e-07
 Reference value :  5.04630e-07
 Reference value :  5.06443e-07
 Reference value :  5.08785e-07
 Reference value :  5.11229e-07
 Reference value :  5.13778e-07
 Reference value :  5.17376e-07
 Reference value :  5.25873e-07
 Reference value :  5.81624e-07
 Reference value :  7.50110e-07
 Reference value :  7.50200e-07
 Reference value :  7.50256e-07
 Reference value :  7.50448e-07
 Reference value :  7.50986e-07
 Reference value :  7.51860e-07
 Reference value :  7.52990e-07
 Reference value :  7.53972e-07
 Reference value :  7.55028e-07
 Reference value :  7.56545e-07
 Reference value :  7.58281e-07
 Reference value :  7.60933e-07
 Reference value :  7.74104e-07
 Reference value :  8.72987e-07
 Reference value :  1.00001e-06
 Reference value :  1.00010e-06
 Reference value :  1.00016e-06
 Reference value :  1.00052e-06
 Reference value :  1.00119e-06
 Reference value :  1.00201e-06
 Reference value :  1.00290e-06
 Reference value :  1.00389e-06
 Reference value :  1.00484e-06
 Reference value :  1.00592e-06
 Reference value :  1.00757e-06
 Reference value :  1.00933e-06
 Reference value :  1.01018e-06
 Reference value :  1.01192e-06
 Reference value :  1.01353e-06
 Reference value :  1.01624e-06
 Reference value :  1.02046e-06
 Reference value :  1.03740e-06
 Reference value :  1.14242e-06
 Reference value :  1.25010e-06
 Reference value :  1.25013e-06
 Reference value :  1.25020e-06
 Reference value :  1.25026e-06
 Reference value :  1.25069e-06
 Reference value :  1.25140e-06
 Reference value :  1.25230e-06
 Reference value :  1.25300e-06
 Reference value :  1.25345e-06
 Reference value :  1.25462e-06
 Reference value :  1.25601e-06
 Reference value :  1.25895e-06
 Reference value :  1.26540e-06
 Reference value :  1.31681e-06
 Reference value :  1.49309e-06
 Reference value :  1.50003e-06
 Reference value :  1.50011e-06
 Reference value :  1.50022e-06
 Reference value :  1.50052e-06
 Reference value :  1.50119e-06
 Reference value :  1.50154e-06
 Reference value :  1.50235e-06
 Reference value :  1.50333e-06
 Reference value :  1.50598e-06
 Reference value :  1.50749e-06
 Reference value :  1.51147e-06
 Reference value :  1.58300e-06
 Reference value :  1.75017e-06
 Reference value :  1.75032e-06
 Reference value :  1.75098e-06
 Reference value :  1.75230e-06
 Reference value :  1.75345e-06
 Reference value :  1.75502e-06
 Reference value :  1.75752e-06
 Reference value :  1.76108e-06
 Reference value :  1.79031e-06
 Reference value :  2.00000e-06
 Reference value :  2.00003e-06
 Reference value :  2.00010e-06
 Reference value :  2.00012e-06
 Reference value :  2.00022e-06
 Reference value :  2.00052e-06
 Reference value :  2.00119e-06
 Reference value :  2.00158e-06
 Reference value :  2.00242e-06
 Reference value :  2.00290e-06
 Reference value :  2.00390e-06
 Reference value :  2.00484e-06
 Reference value :  2.00593e-06
 Reference value :  2.00758e-06
 Reference value :  2.00933e-06
 Reference value :  2.01017e-06
 Reference value :  2.01191e-06
 Reference value :  2.01353e-06
 Reference value :  2.01528e-06
 Reference value :  2.01722e-06
 Reference value :  2.02045e-06
 Reference value :  2.05279e-06
 Reference value :  2.25010e-06
 Reference value :  2.25017e-06
 Reference value :  2.25026e-06
 Reference value :  2.25069e-06
 Reference value :  2.25140e-06
 Reference value :  2.25299e-06
 Reference value :  2.25397e-06
 Reference value :  2.25601e-06
 Reference value :  2.26541e-06
 Reference value :  2.48657e-06
 Reference value :  2.50007e-06
 Reference value :  2.50016e-06
 Reference value :  2.50052e-06
 Reference value :  2.50154e-06
 Reference value :  2.50282e-06
 Reference value :  2.50388e-06
 Reference value :  2.50536e-06
 Reference value :  2.50598e-06
 Reference value :  2.50749e-06
 Reference value :  2.51029e-06
 Reference value :  2.51680e-06
 Reference value :  2.54866e-06
 Reference value :  2.75010e-06
 Reference value :  2.75017e-06
 Reference value :  2.75022e-06
 Reference value :  2.75045e-06
 Reference value :  2.75098e-06
 Reference value :  2.75140e-06
 Reference value :  2.75229e-06
 Reference value :  2.75299e-06
 Reference value :  2.75344e-06
 Reference value :  2.75448e-06
 Reference value :  2.75579e-06
 Reference value :  2.75751e-06
 Reference value :  2.75964e-06
 Reference value :  2.76741e-06
 Reference value :  2.82002e-06
 Reference value :  3.00001e-06
 Reference value :  3.00010e-06
 Reference value :  3.00016e-06
 Reference value :  3.00034e-06
 Reference value :  3.00083e-06
 Reference value :  3.00158e-06
 Reference value :  3.00242e-06
 Reference value :  3.00390e-06
 Reference value :  3.00484e-06
 Reference value :  3.00664e-06
 Reference value :  3.00841e-06
 Reference value :  3.01016e-06
 Reference value :  3.01112e-06
 Reference value :  3.01271e-06
 Reference value :  3.01446e-06
 Reference value :  3.01634e-06
 Reference value :  3.02085e-06
 Reference value :  3.03984e-06
 Reference value :  3.09877e-06
 Reference value :  3.11824e-06
 Reference value :  3.15401e-06
 Reference value :  3.16680e-06
 Reference value :  3.19092e-06
 Reference value :  3.25010e-06
 Reference value :  3.25017e-06
 Reference value :  3.25022e-06
 Reference value :  3.25069e-06
 Reference value :  3.25140e-06
 Reference value :  3.25299e-06
 Reference value :  3.25398e-06
 Reference value :  3.25524e-06
 Reference value :  3.25890e-06
 Reference value :  3.27247e-06
 Reference value :  3.30143e-06
 Reference value :  3.31269e-06
 Reference value :  3.33972e-06
 Reference value :  3.37132e-06
 Reference value :  3.40959e-06
 Reference value :  3.50000e-06
 Reference value :  3.50007e-06
 Reference value :  3.50012e-06
 Reference value :  3.50022e-06
 Reference value :  3.50083e-06
 Reference value :  3.50153e-06
 Reference value :  3.50234e-06
 Reference value :  3.50332e-06
 Reference value :  3.50462e-06
 Reference value :  3.50597e-06
 Reference value :  3.50747e-06
 Reference value :  3.51026e-06
 Reference value :  3.52254e-06
 Reference value :  3.75010e-06
 Reference value :  3.75017e-06
 Reference value :  3.75026e-06
 Reference value :  3.75069e-06
 Reference value :  3.75140e-06
 Reference value :  3.75299e-06
 Reference value :  3.75344e-06
 Reference value :  3.75447e-06
 Reference value :  3.75579e-06
 Reference value :  3.75750e-06
 Reference value :  3.75962e-06
 Reference value :  3.76735e-06
 Reference value :  3.87907e-06
 Reference value :  4.00003e-06
 Reference value :  4.00012e-06
 Reference value :  4.00034e-06
 Reference value :  4.00119e-06
 Reference value :  4.00200e-06
 Reference value :  4.00289e-06
 Reference value :  4.00389e-06
 Reference value :  4.00482e-06
 Reference value :  4.00659e-06
 Reference value :  4.00843e-06
 Reference value :  4.01023e-06
 Reference value :  4.01120e-06
 Reference value :  4.01271e-06
 Reference value :  4.01355e-06
 Reference value :  4.01528e-06
 Reference value :  4.01882e-06
 Reference value :  4.03160e-06
 Reference value :  4.03725e-06
 Reference value :  4.04662e-06
 Reference value :  4.07132e-06
 Reference value :  4.10777e-06
 Reference value :  4.24316e-06
 Reference value :  4.25017e-06
 Reference value :  4.25022e-06
 Reference value :  4.25069e-06
 Reference value :  4.25140e-06
 Reference value :  4.25299e-06
 Reference value :  4.25398e-06
 Reference value :  4.25523e-06
 Reference value :  4.26162e-06
 Reference value :  4.28670e-06
 Reference value :  4.50000e-06
 Reference value :  4.50007e-06
 Reference value :  4.50012e-06
 Reference value :  4.50034e-06
 Reference value :  4.50083e-06
 Reference value :  4.50158e-06
 Reference value :  4.50290e-06
 Reference value :  4.50399e-06
 Reference value :  4.50553e-06
 Reference value :  4.50616e-06
 Reference value :  4.50771e-06
 Reference value :  4.51086e-06
 Reference value :  4.52978e-06
 Reference value :  4.75010e-06
 Reference value :  4.75017e-06
 Reference value :  4.75022e-06
 Reference value :  4.75045e-06
 Reference value :  4.75098e-06
 Reference value :  4.75186e-06
 Reference value :  4.75344e-06
 Reference value :  4.75448e-06
 Reference value :  4.75579e-06
 Reference value :  4.76362e-06
 Reference value :  4.85771e-06
 Reference value :  5.00003e-06
 Reference value :  5.00012e-06
 Reference value :  5.00034e-06
 Reference value :  5.00119e-06
 Reference value :  5.00201e-06
 Reference value :  5.00289e-06
 Reference value :  5.00450e-06
 Reference value :  5.00500e-06
 Reference value :  5.00632e-06
 Reference value :  5.00847e-06
 Reference value :  5.01120e-06
 Reference value :  5.01223e-06
 Reference value :  5.01428e-06
 Reference value :  5.01524e-06
 Reference value :  5.01737e-06
 Reference value :  5.02393e-06
 Reference value :  5.04734e-06
 Reference value :  5.10267e-06
 Reference value :  5.25010e-06
 Reference value :  5.25013e-06
 Reference value :  5.25020e-06
 Reference value :  5.25026e-06
 Reference value :  5.25045e-06
 Reference value :  5.25098e-06
 Reference value :  5.25186e-06
 Reference value :  5.25299e-06
 Reference value :  5.25398e-06
 Reference value :  5.25523e-06
 Reference value :  5.25888e-06
 Reference value :  5.28663e-06
 Reference value :  5.50000e-06
 Reference value :  5.50007e-06
 Reference value :  5.50012e-06
 Reference value :  5.50034e-06
 Reference value :  5.50119e-06
 Reference value :  5.50201e-06
 Reference value :  5.50290e-06
 Reference value :  5.50399e-06
 Reference value :  5.50553e-06
 Reference value :  5.50616e-06
 Reference value :  5.50771e-06
 Reference value :  5.51086e-06
 Reference value :  5.52969e-06
 Reference value :  5.75010e-06
 Reference value :  5.75017e-06
 Reference value :  5.75026e-06
 Reference value :  5.75069e-06
 Reference value :  5.75140e-06
 Reference value :  5.75299e-06
 Reference value :  5.75397e-06
 Reference value :  5.75502e-06
 Reference value :  5.75661e-06
 Reference value :  5.76988e-06
 Reference value :  5.95792e-06
 Reference value :  6.00003e-06
 Reference value :  6.00011e-06
 Reference value :  6.00022e-06
 Reference value :  6.00052e-06
 Reference value :  6.00119e-06
 Reference value :  6.00158e-06
 Reference value :  6.00289e-06
 Reference value :  6.00450e-06
 Reference value :  6.00554e-06
 Reference value :  6.00847e-06
 Reference value :  6.01120e-06
 Reference value :  6.01323e-06
 Reference value :  6.01524e-06
 Reference value :  6.01737e-06
 Reference value :  6.02074e-06
 Reference value :  6.03610e-06
 Reference value :  6.13073e-06
 Reference value :  6.25011e-06
 Reference value :  6.25020e-06
 Reference value :  6.25032e-06
 Reference value :  6.25098e-06
 Reference value :  6.25229e-06
 Reference value :  6.25345e-06
 Reference value :  6.25524e-06
 Reference value :  6.26163e-06
 Reference value :  6.37287e-06
 Reference value :  6.50003e-06
 Reference value :  6.50011e-06
 Reference value :  6.50016e-06
 Reference value :  6.50034e-06
 Reference value :  6.50083e-06
 Reference value :  6.50158e-06
 Reference value :  6.50290e-06
 Reference value :  6.50474e-06
 Reference value :  6.50616e-06
 Reference value :  6.50865e-06
 Reference value :  6.51249e-06
 Reference value :  6.54732e-06
 Reference value :  6.75010e-06
 Reference value :  6.75017e-06
 Reference value :  6.75022e-06
 Reference value :  6.75045e-06
 Reference value :  6.75139e-06
 Reference value :  6.75299e-06
 Reference value :  6.75397e-06
 Reference value :  6.75502e-06
 Reference value :  6.75661e-06
 Reference value :  6.76987e-06
 Reference value :  6.95778e-06
 Reference value :  7.00007e-06
 Reference value :  7.00012e-06
 Reference value :  7.00034e-06
 Reference value :  7.00119e-06
 Reference value :  7.00201e-06
 Reference value :  7.00289e-06
 Reference value :  7.00396e-06
 Reference value :  7.00500e-06
 Reference value :  7.00709e-06
 Reference value :  7.00997e-06
 Reference value :  7.01120e-06
 Reference value :  7.01322e-06
 Reference value :  7.01524e-06
 Reference value :  7.01911e-06
 Reference value :  7.03624e-06
 Reference value :  7.19626e-06
 Reference value :  7.25017e-06
 Reference value :  7.25026e-06
 Reference value :  7.25069e-06
 Reference value :  7.25140e-06
 Reference value :  7.25299e-06
 Reference value :  7.25398e-06
 Reference value :  7.25523e-06
 Reference value :  7.25888e-06
 Reference value :  7.28664e-06
 Reference value :  7.50000e-06
 Reference value :  7.50010e-06
 Reference value :  7.50016e-06
 Reference value :  7.50052e-06
 Reference value :  7.50119e-06
 Reference value :  7.50201e-06
 Reference value :  7.50290e-06
 Reference value :  7.50399e-06
 Reference value :  7.50552e-06
 Reference value :  7.50616e-06
 Reference value :  7.50771e-06
 Reference value :  7.51087e-06
 Reference value :  7.52945e-06
 Reference value :  7.65139e-06
 Reference value :  7.75013e-06
 Reference value :  7.75021e-06
 Reference value :  7.75032e-06
 Reference value :  7.75098e-06
 Reference value :  7.75186e-06
 Reference value :  7.75299e-06
 Reference value :  7.75344e-06
 Reference value :  7.75447e-06
 Reference value :  7.75579e-06
 Reference value :  7.76359e-06
 Reference value :  7.85728e-06
 Reference value :  8.00003e-06
 Reference value :  8.00011e-06
 Reference value :  8.00022e-06
 Reference value :  8.00083e-06
 Reference value :  8.00158e-06
 Reference value :  8.00289e-06
 Reference value :  8.00452e-06
 Reference value :  8.00558e-06
 Reference value :  8.00717e-06
 Reference value :  8.00885e-06
 Reference value :  8.02264e-06
 Reference value :  8.12060e-06
 Reference value :  8.25011e-06
 Reference value :  8.25020e-06
 Reference value :  8.25032e-06
 Reference value :  8.25070e-06
 Reference value :  8.25139e-06
 Reference value :  8.25298e-06
 Reference value :  8.25535e-06
 Reference value :  8.25767e-06
 Reference value :  8.26625e-06
 Reference value :  8.32167e-06
 Reference value :  8.50000e-06
 Reference value :  8.50000e-06
 Reference value :  8.50000e-06
 Reference value :  8.50001e-06
 Reference value :  8.50008e-06
 Reference value :  8.50012e-06
 Reference value :  8.50018e-06
 Reference value :  8.50044e-06
 Reference value :  8.50115e-06
 Reference value :  8.50197e-06
 Reference value :  8.50292e-06
 Reference value :  8.50348e-06
 Reference value :  8.50446e-06
 Reference value :  8.50554e-06
 Reference value :  8.50743e-06
 Reference value :  8.51731e-06
 Reference value :  8.52239e-06
 Reference value :  8.52625e-06
 Reference value :  8.52915e-06
 Reference value :  8.53131e-06
 Reference value :  8.53505e-06
 Reference value :  8.53609e-06
 Reference value :  8.53688e-06
 Reference value :  8.53921e-06
 Reference value :  8.54031e-06
 Reference value :  8.54281e-06
 Reference value :  8.54724e-06
 Reference value :  8.55541e-06
 Reference value :  8.57166e-06
 Reference value :  8.57633e-06
 Reference value :  8.58412e-06
 Reference value :  8.59136e-06
 Reference value :  8.60019e-06
 Reference value :  8.61786e-06
 Reference value :  8.65929e-06
 Reference value :  8.75011e-06
 Reference value :  8.75020e-06
 Reference value :  8.75026e-06
 Reference value :  8.75045e-06
 Reference value :  8.75098e-06
 Reference value :  8.75185e-06
 Reference value :  8.75297e-06
 Reference value :  8.75340e-06
 Reference value :  8.75452e-06
 Reference value :  8.75591e-06
 Reference value :  8.76141e-06
 Reference value :  8.78477e-06
 Reference value :  8.97159e-06
 Reference value :  9.00003e-06
 Reference value :  9.00011e-06
 Reference value :  9.00034e-06
 Reference value :  9.00083e-06
 Reference value :  9.00154e-06
 Reference value :  9.00281e-06
 Reference value :  9.00387e-06
 Reference value :  9.00534e-06
 Reference value :  9.00643e-06
 Reference value :  9.00878e-06
 Reference value :  9.01121e-06
 Reference value :  9.01243e-06
 Reference value :  9.01544e-06
 Reference value :  9.02560e-06
 Reference value :  9.07966e-06
 Reference value :  9.25011e-06
 Reference value :  9.25020e-06
 Reference value :  9.25032e-06
 Reference value :  9.25098e-06
 Reference value :  9.25186e-06
 Reference value :  9.25298e-06
 Reference value :  9.25396e-06
 Reference value :  9.25500e-06
 Reference value :  9.25656e-06
 Reference value :  9.25961e-06
 Reference value :  9.26664e-06
 Reference value :  9.30571e-06
 Reference value :  9.50001e-06
 Reference value :  9.50010e-06
 Reference value :  9.50016e-06
 Reference value :  9.50034e-06
 Reference value :  9.50083e-06
 Reference value :  9.50158e-06
 Reference value :  9.50290e-06
 Reference value :  9.50390e-06
 Reference value :  9.50484e-06
 Reference value :  9.50664e-06
 Reference value :  9.50759e-06
 Reference value :  9.50841e-06
 Reference value :  9.50928e-06
 Reference value :  9.51015e-06
 Reference value :  9.51111e-06
 Reference value :  9.51192e-06
 Reference value :  9.51359e-06
 Reference value :  9.51449e-06
 Reference value :  9.51538e-06
 Reference value :  9.51642e-06
 Reference value :  9.52106e-06
 Reference value :  9.56459e-06
 Reference value :  9.75010e-06
 Reference value :  9.75017e-06
 Reference value :  9.75022e-06
 Reference value :  9.75045e-06
 Reference value :  9.75140e-06
 Reference value :  9.75229e-06
 Reference value :  9.75344e-06
 Reference value :  9.75463e-06
 Reference value :  9.75748e-06
 Reference value :  9.76544e-06
 Reference value :  9.87567e-06
 Reference value :  1.00000e-05
 Reference value :  1.00001e-05
 Reference value :  1.00002e-05
 Reference value :  1.00003e-05
 Reference value :  1.00008e-05
 Reference value :  1.00015e-05
 Reference value :  1.00028e-05
 Reference value :  1.00046e-05
 Reference value :  1.00066e-05
 Reference value :  1.00075e-05
 Reference value :  1.00103e-05
 Reference value :  1.00474e-05
 Reference value :  1.02501e-05
 Reference value :  1.02502e-05
 Reference value :  1.02507e-05
 Reference value :  1.02514e-05
 Reference value :  1.02530e-05
 Reference value :  1.02540e-05
 Reference value :  1.02550e-05
 Reference value :  1.02566e-05
 Reference value :  1.02596e-05
 Reference value :  1.03192e-05
 Reference value :  1.05000e-05
 Reference value :  1.05002e-05
 Reference value :  1.05008e-05
 Reference value :  1.05016e-05
 Reference value :  1.05024e-05
 Reference value :  1.05034e-05
 Reference value :  1.05044e-05
 Reference value :  1.05053e-05
 Reference value :  1.05076e-05
 Reference value :  1.05093e-05
 Reference value :  1.05102e-05
 Reference value :  1.05119e-05
 Reference value :  1.05136e-05
 Reference value :  1.05164e-05
 Reference value :  1.05210e-05
 Reference value :  1.05635e-05
 Reference value :  1.07501e-05
 Reference value :  1.07502e-05
 Reference value :  1.07503e-05
 Reference value :  1.07507e-05
 Reference value :  1.07514e-05
 Reference value :  1.07530e-05
 Reference value :  1.07540e-05
 Reference value :  1.07560e-05
 Reference value :  1.07618e-05
 Reference value :  1.08168e-05
 Reference value :  1.10000e-05
 Reference value :  1.10001e-05
 Reference value :  1.10002e-05
 Reference value :  1.10008e-05
 Reference value :  1.10015e-05
 Reference value :  1.10023e-05
 Reference value :  1.10028e-05
 Reference value :  1.10039e-05
 Reference value :  1.10054e-05
 Reference value :  1.10060e-05
 Reference value :  1.10075e-05
 Reference value :  1.10092e-05
 Reference value :  1.10114e-05
 Reference value :  1.10315e-05
 Reference value :  1.11423e-05
 Reference value :  1.12501e-05
 Reference value :  1.12502e-05
 Reference value :  1.12503e-05
 Reference value :  1.12507e-05
 Reference value :  1.12514e-05
 Reference value :  1.12523e-05
 Reference value :  1.12534e-05
 Reference value :  1.12545e-05
 Reference value :  1.12558e-05
 Reference value :  1.12575e-05
 Reference value :  1.12596e-05
 Reference value :  1.12673e-05
 Reference value :  1.13785e-05
 Reference value :  1.15000e-05
 Reference value :  1.15001e-05
 Reference value :  1.15003e-05
 Reference value :  1.15008e-05
 Reference value :  1.15016e-05
 Reference value :  1.15029e-05
 Reference value :  1.15039e-05
 Reference value :  1.15053e-05
 Reference value :  1.15076e-05
 Reference value :  1.15093e-05
 Reference value :  1.15102e-05
 Reference value :  1.15119e-05
 Reference value :  1.15136e-05
 Reference value :  1.15154e-05
 Reference value :  1.15174e-05
 Reference value :  1.15245e-05
 Reference value :  1.15588e-05
 Reference value :  1.16178e-05
 Reference value :  1.16355e-05
 Reference value :  1.16464e-05
 Reference value :  1.16635e-05
 Reference value :  1.17316e-05
 Reference value :  1.17502e-05
 Reference value :  1.17503e-05
 Reference value :  1.17507e-05
 Reference value :  1.17514e-05
 Reference value :  1.17530e-05
 Reference value :  1.17540e-05
 Reference value :  1.17560e-05
 Reference value :  1.17723e-05
 Reference value :  1.18384e-05
 Reference value :  1.18698e-05
 Reference value :  1.19107e-05
 Reference value :  1.20000e-05
 Reference value :  1.20001e-05
 Reference value :  1.20002e-05
 Reference value :  1.20008e-05
 Reference value :  1.20015e-05
 Reference value :  1.20028e-05
 Reference value :  1.20046e-05
 Reference value :  1.20060e-05
 Reference value :  1.20084e-05
 Reference value :  1.20114e-05
 Reference value :  1.20487e-05
 Reference value :  1.22501e-05
 Reference value :  1.22502e-05
 Reference value :  1.22503e-05
 Reference value :  1.22510e-05
 Reference value :  1.22519e-05
 Reference value :  1.22530e-05
 Reference value :  1.22540e-05
 Reference value :  1.22550e-05
 Reference value :  1.22566e-05
 Reference value :  1.22596e-05
 Reference value :  1.22747e-05
 Reference value :  1.24970e-05
 Reference value :  1.25000e-05
 Reference value :  1.25001e-05
 Reference value :  1.25002e-05
 Reference value :  1.25005e-05
 Reference value :  1.25012e-05
 Reference value :  1.25020e-05
 Reference value :  1.25029e-05
 Reference value :  1.25039e-05
 Reference value :  1.25048e-05
 Reference value :  1.25066e-05
 Reference value :  1.25084e-05
 Reference value :  1.25102e-05
 Reference value :  1.25120e-05
 Reference value :  1.25136e-05
 Reference value :  1.25153e-05
 Reference value :  1.25172e-05
 Reference value :  1.25238e-05
 Reference value :  1.25273e-05
 Reference value :  1.25340e-05
 Reference value :  1.25431e-05
 Reference value :  1.25686e-05
 Reference value :  1.25920e-05
 Reference value :  1.26449e-05
 Reference value :  1.27501e-05
 Reference value :  1.27502e-05
 Reference value :  1.27503e-05
 Reference value :  1.27507e-05
 Reference value :  1.27519e-05
 Reference value :  1.27534e-05
 Reference value :  1.27552e-05
 Reference value :  1.27652e-05
 Reference value :  1.28722e-05
 Reference value :  1.30000e-05
 Reference value :  1.30001e-05
 Reference value :  1.30002e-05
 Reference value :  1.30008e-05
 Reference value :  1.30016e-05
 Reference value :  1.30029e-05
 Reference value :  1.30040e-05
 Reference value :  1.30055e-05
 Reference value :  1.30069e-05
 Reference value :  1.30087e-05
 Reference value :  1.30125e-05
 Reference value :  1.30295e-05
 Reference value :  1.31528e-05
 Reference value :  1.32501e-05
 Reference value :  1.32502e-05
 Reference value :  1.32502e-05
 Reference value :  1.32504e-05
 Reference value :  1.32510e-05
 Reference value :  1.32514e-05
 Reference value :  1.32523e-05
 Reference value :  1.32530e-05
 Reference value :  1.32534e-05
 Reference value :  1.32545e-05
 Reference value :  1.32558e-05
 Reference value :  1.32603e-05
 Reference value :  1.32823e-05
 Reference value :  1.34572e-05
 Reference value :  1.35001e-05
 Reference value :  1.35001e-05
 Reference value :  1.35003e-05
 Reference value :  1.35008e-05
 Reference value :  1.35016e-05
 Reference value :  1.35029e-05
 Reference value :  1.35040e-05
 Reference value :  1.35050e-05
 Reference value :  1.35071e-05
 Reference value :  1.35112e-05
 Reference value :  1.35132e-05
 Reference value :  1.35152e-05
 Reference value :  1.35174e-05
 Reference value :  1.35286e-05
 Reference value :  1.35587e-05
 Reference value :  1.36451e-05
 Reference value :  1.37501e-05
 Reference value :  1.37502e-05
 Reference value :  1.37503e-05
 Reference value :  1.37507e-05
 Reference value :  1.37514e-05
 Reference value :  1.37523e-05
 Reference value :  1.37534e-05
 Reference value :  1.37546e-05
 Reference value :  1.37560e-05
 Reference value :  1.37616e-05
 Reference value :  1.37866e-05
 Reference value :  1.38725e-05
 Reference value :  1.40000e-05
 Reference value :  1.40001e-05
 Reference value :  1.40002e-05
 Reference value :  1.40003e-05
 Reference value :  1.40008e-05
 Reference value :  1.40016e-05
 Reference value :  1.40024e-05
 Reference value :  1.40034e-05
 Reference value :  1.40047e-05
 Reference value :  1.40062e-05
 Reference value :  1.40077e-05
 Reference value :  1.40096e-05
 Reference value :  1.40155e-05
 Reference value :  1.40471e-05
 Reference value :  1.42501e-05
 Reference value :  1.42501e-05
 Reference value :  1.42502e-05
 Reference value :  1.42504e-05
 Reference value :  1.42514e-05
 Reference value :  1.42530e-05
 Reference value :  1.42540e-05
 Reference value :  1.42550e-05
 Reference value :  1.42582e-05
 Reference value :  1.42823e-05
 Reference value :  1.44571e-05
 Reference value :  1.45000e-05
 Reference value :  1.45001e-05
 Reference value :  1.45002e-05
 Reference value :  1.45008e-05
 Reference value :  1.45016e-05
 Reference value :  1.45029e-05
 Reference value :  1.45040e-05
 Reference value :  1.45050e-05
 Reference value :  1.45071e-05
 Reference value :  1.45100e-05
 Reference value :  1.45112e-05
 Reference value :  1.45132e-05
 Reference value :  1.45152e-05
 Reference value :  1.45191e-05
 Reference value :  1.45286e-05
 Reference value :  1.45584e-05
 Reference value :  1.47017e-05
 Reference value :  1.47501e-05
 Reference value :  1.47502e-05
 Reference value :  1.47503e-05
 Reference value :  1.47507e-05
 Reference value :  1.47514e-05
 Reference value :  1.47523e-05
 Reference value :  1.47535e-05
 Reference value :  1.47546e-05
 Reference value :  1.47560e-05
 Reference value :  1.47616e-05
 Reference value :  1.47868e-05
 Reference value :  1.49880e-05
 Reference value :  1.50000e-05
 Reference value :  1.50001e-05
 Reference value :  1.50002e-05
 Reference value :  1.50005e-05
 Reference value :  1.50012e-05
 Reference value :  1.50020e-05
 Reference value :  1.50029e-05
 Reference value :  1.50040e-05
 Reference value :  1.50062e-05
 Reference value :  1.50077e-05
 Reference value :  1.50109e-05
 Reference value :  1.50295e-05
 Reference value :  1.52501e-05
 Reference value :  1.52502e-05
 Reference value :  1.52503e-05
 Reference value :  1.52510e-05
 Reference value :  1.52519e-05
 Reference value :  1.52534e-05
 Reference value :  1.52545e-05
 Reference value :  1.52566e-05
 Reference value :  1.52823e-05
 Reference value :  1.55007e-05
 Reference value :  1.55029e-05
 Reference value :  1.55037e-05
 Reference value :  1.55043e-05
 Reference value :  1.55050e-05
 Reference value :  1.55055e-05
 Reference value :  1.55070e-05
 Reference value :  1.55093e-05
 Reference value :  1.55106e-05
 Reference value :  1.55130e-05
 Reference value :  1.55150e-05
 Reference value :  1.55174e-05
 Reference value :  1.55205e-05
 Reference value :  1.55447e-05
 Reference value :  1.57501e-05
 Reference value :  1.57502e-05
 Reference value :  1.57503e-05
 Reference value :  1.57510e-05
 Reference value :  1.57519e-05
 Reference value :  1.57534e-05
 Reference value :  1.57545e-05
 Reference value :  1.57571e-05
 Reference value :  1.57642e-05
 Reference value :  1.58082e-05
 Reference value :  1.60000e-05
 Reference value :  1.60001e-05
 Reference value :  1.60002e-05
 Reference value :  1.60003e-05
 Reference value :  1.60008e-05
 Reference value :  1.60016e-05
 Reference value :  1.60024e-05
 Reference value :  1.60034e-05
 Reference value :  1.60047e-05
 Reference value :  1.60062e-05
 Reference value :  1.60077e-05
 Reference value :  1.60109e-05
 Reference value :  1.60203e-05
 Reference value :  1.60792e-05
 Reference value :  1.62501e-05
 Reference value :  1.62502e-05
 Reference value :  1.62503e-05
 Reference value :  1.62504e-05
 Reference value :  1.62510e-05
 Reference value :  1.62514e-05
 Reference value :  1.62523e-05
 Reference value :  1.62534e-05
 Reference value :  1.62545e-05
 Reference value :  1.62558e-05
 Reference value :  1.62603e-05
 Reference value :  1.62699e-05
 Reference value :  1.63582e-05
 Reference value :  1.65000e-05
 Reference value :  1.65001e-05
 Reference value :  1.65002e-05
 Reference value :  1.65005e-05
 Reference value :  1.65012e-05
 Reference value :  1.65016e-05
 Reference value :  1.65024e-05
 Reference value :  1.65034e-05
 Reference value :  1.65050e-05
 Reference value :  1.65064e-05
 Reference value :  1.65079e-05
 Reference value :  1.65098e-05
 Reference value :  1.65226e-05
 Reference value :  1.66206e-05
 Reference value :  1.67501e-05
 Reference value :  1.67502e-05
 Reference value :  1.67503e-05
 Reference value :  1.67510e-05
 Reference value :  1.67519e-05
 Reference value :  1.67530e-05
 Reference value :  1.67545e-05
 Reference value :  1.67562e-05
 Reference value :  1.67619e-05
 Reference value :  1.68217e-05
 Reference value :  1.70000e-05
 Reference value :  1.70000e-05
 Reference value :  1.70000e-05
 Reference value :  1.70001e-05
 Reference value :  1.70001e-05
 Reference value :  1.70003e-05
 Reference value :  1.70012e-05
 Reference value :  1.70020e-05
 Reference value :  1.70029e-05
 Reference value :  1.70040e-05
 Reference value :  1.70049e-05
 Reference value :  1.70074e-05
 Reference value :  1.70173e-05
 Reference value :  1.70179e-05
 Reference value :  1.70215e-05
 Reference value :  1.70238e-05
 Reference value :  1.70276e-05
 Reference value :  1.70306e-05
 Reference value :  1.70327e-05
 Reference value :  1.70350e-05
 Reference value :  1.70371e-05
 Reference value :  1.70409e-05
 Reference value :  1.70508e-05
 Reference value :  1.70638e-05
 Reference value :  1.70759e-05
 Reference value :  1.70801e-05
 Reference value :  1.70845e-05
 Reference value :  1.70916e-05
 Reference value :  1.70991e-05
 Reference value :  1.71100e-05
 Reference value :  1.71457e-05
 Reference value :  1.72501e-05
 Reference value :  1.72502e-05
 Reference value :  1.72503e-05
 Reference value :  1.72507e-05
 Reference value :  1.72514e-05
 Reference value :  1.72530e-05
 Reference value :  1.72539e-05
 Reference value :  1.72559e-05
 Reference value :  1.72648e-05
 Reference value :  1.74730e-05
 Reference value :  1.75001e-05
 Reference value :  1.75002e-05
 Reference value :  1.75005e-05
 Reference value :  1.75012e-05
 Reference value :  1.75019e-05
 Reference value :  1.75028e-05
 Reference value :  1.75046e-05
 Reference value :  1.75064e-05
 Reference value :  1.75088e-05
 Reference value :  1.75112e-05
 Reference value :  1.75137e-05
 Reference value :  1.75172e-05
 Reference value :  1.75490e-05
 Reference value :  1.77501e-05
 Reference value :  1.77502e-05
 Reference value :  1.77504e-05
 Reference value :  1.77510e-05
 Reference value :  1.77519e-05
 Reference value :  1.77530e-05
 Reference value :  1.77540e-05
 Reference value :  1.77550e-05
 Reference value :  1.77566e-05
 Reference value :  1.77595e-05
 Reference value :  1.77734e-05
 Reference value :  1.79583e-05
 Reference value :  1.80007e-05
 Reference value :  1.80029e-05
 Reference value :  1.80042e-05
 Reference value :  1.80053e-05
 Reference value :  1.80066e-05
 Reference value :  1.80095e-05
 Reference value :  1.80114e-05
 Reference value :  1.80131e-05
 Reference value :  1.80140e-05
 Reference value :  1.80159e-05
 Reference value :  1.80182e-05
 Reference value :  1.80548e-05
 Reference value :  1.82501e-05
 Reference value :  1.82502e-05
 Reference value :  1.82510e-05
 Reference value :  1.82519e-05
 Reference value :  1.82534e-05
 Reference value :  1.82551e-05
 Reference value :  1.82611e-05
 Reference value :  1.83570e-05
 Reference value :  1.85001e-05
 Reference value :  1.85002e-05
 Reference value :  1.85012e-05
 Reference value :  1.85028e-05
 Reference value :  1.85054e-05
 Reference value :  1.85075e-05
 Reference value :  1.85103e-05
 Reference value :  1.85474e-05
 Reference value :  1.87501e-05
 Reference value :  1.87502e-05
 Reference value :  1.87507e-05
 Reference value :  1.87519e-05
 Reference value :  1.87534e-05
 Reference value :  1.87550e-05
 Reference value :  1.87583e-05
 Reference value :  1.87896e-05
 Reference value :  1.90000e-05
 Reference value :  1.90002e-05
 Reference value :  1.90016e-05
 Reference value :  1.90029e-05
 Reference value :  1.90048e-05
 Reference value :  1.90084e-05
 Reference value :  1.90102e-05
 Reference value :  1.90127e-05
 Reference value :  1.90154e-05
 Reference value :  1.90210e-05
 Reference value :  1.91409e-05
 Reference value :  1.92502e-05
 Reference value :  1.92503e-05
 Reference value :  1.92514e-05
 Reference value :  1.92534e-05
 Reference value :  1.92560e-05
 Reference value :  1.92875e-05
 Reference value :  1.95002e-05
 Reference value :  1.95009e-05
 Reference value :  1.95019e-05
 Reference value :  1.95028e-05
 Reference value :  1.95046e-05
 Reference value :  1.95060e-05
 Reference value :  1.95084e-05
 Reference value :  1.95166e-05
 Reference value :  1.97501e-05
 Reference value :  1.97502e-05
 Reference value :  1.97507e-05
 Reference value :  1.97523e-05
 Reference value :  1.97534e-05
 Reference value :  1.97558e-05
 Reference value :  1.97596e-05
 Reference value :  1.98787e-05
 Reference value :  2.00001e-05
 Reference value :  2.00003e-05
 Reference value :  2.00012e-05
 Reference value :  2.00020e-05
 Reference value :  2.00029e-05
 Reference value :  2.00044e-05
 Reference value :  2.00059e-05
 Reference value :  2.00084e-05
 Reference value :  2.00102e-05
 Reference value :  2.00127e-05
 Reference value :  2.00145e-05
 Reference value :  2.00164e-05
 Reference value :  2.00210e-05
 Reference value :  2.00414e-05
 Reference value :  2.00757e-05
 Reference value :  2.01177e-05
 Reference value :  2.01350e-05
 Reference value :  2.01450e-05
 Reference value :  2.01734e-05
 Reference value :  2.02501e-05
 Reference value :  2.02502e-05
 Reference value :  2.02503e-05
 Reference value :  2.02510e-05
 Reference value :  2.02514e-05
 Reference value :  2.02530e-05
 Reference value :  2.02540e-05
 Reference value :  2.02552e-05
 Reference value :  2.02589e-05
 Reference value :  2.02723e-05
 Reference value :  2.03725e-05
 Reference value :  2.04381e-05
 Reference value :  2.04995e-05
 Reference value :  2.05000e-05
 Reference value :  2.05001e-05
 Reference value :  2.05003e-05
 Reference value :  2.05011e-05
 Reference value :  2.05019e-05
 Reference value :  2.05028e-05
 Reference value :  2.05047e-05
 Reference value :  2.05060e-05
 Reference value :  2.05075e-05
 Reference value :  2.05103e-05
 Reference value :  2.05221e-05
 Reference value :  2.06249e-05
 Reference value :  2.07501e-05
 Reference value :  2.07501e-05
 Reference value :  2.07502e-05
 Reference value :  2.07503e-05
 Reference value :  2.07507e-05
 Reference value :  2.07514e-05
 Reference value :  2.07530e-05
 Reference value :  2.07534e-05
 Reference value :  2.07545e-05
 Reference value :  2.07558e-05
 Reference value :  2.07575e-05
 Reference value :  2.07596e-05
 Reference value :  2.07670e-05
 Reference value :  2.08162e-05
 Reference value :  2.10000e-05
 Reference value :  2.10001e-05
 Reference value :  2.10001e-05
 Reference value :  2.10002e-05
 Reference value :  2.10005e-05
 Reference value :  2.10008e-05
 Reference value :  2.10016e-05
 Reference value :  2.10024e-05
 Reference value :  2.10034e-05
 Reference value :  2.10044e-05
 Reference value :  2.10059e-05
 Reference value :  2.10076e-05
 Reference value :  2.10093e-05
 Reference value :  2.10101e-05
 Reference value :  2.10119e-05
 Reference value :  2.10136e-05
 Reference value :  2.10166e-05
 Reference value :  2.10242e-05
 Reference value :  2.10295e-05
 Reference value :  2.10362e-05
 Reference value :  2.10680e-05
 Reference value :  2.11188e-05
 Reference value :  2.12501e-05
 Reference value :  2.12502e-05
 Reference value :  2.12504e-05
 Reference value :  2.12514e-05
 Reference value :  2.12530e-05
 Reference value :  2.12546e-05
 Reference value :  2.12616e-05
 Reference value :  2.13725e-05
 Reference value :  2.15000e-05
 Reference value :  2.15001e-05
 Reference value :  2.15003e-05
 Reference value :  2.15008e-05
 Reference value :  2.15016e-05
 Reference value :  2.15029e-05
 Reference value :  2.15047e-05
 Reference value :  2.15062e-05
 Reference value :  2.15077e-05
 Reference value :  2.15125e-05
 Reference value :  2.15827e-05
 Reference value :  2.17501e-05
 Reference value :  2.17502e-05
 Reference value :  2.17507e-05
 Reference value :  2.17514e-05
 Reference value :  2.17530e-05
 Reference value :  2.17540e-05
 Reference value :  2.17550e-05
 Reference value :  2.17566e-05
 Reference value :  2.17698e-05
 Reference value :  2.18565e-05
 Reference value :  2.20008e-05
 Reference value :  2.20030e-05
 Reference value :  2.20045e-05
 Reference value :  2.20050e-05
 Reference value :  2.20056e-05
 Reference value :  2.20080e-05
 Reference value :  2.20093e-05
 Reference value :  2.20107e-05
 Reference value :  2.20130e-05
 Reference value :  2.20148e-05
 Reference value :  2.20170e-05
 Reference value :  2.20220e-05
 Reference value :  2.20413e-05
 Reference value :  2.21587e-05
 Reference value :  2.22501e-05
 Reference value :  2.22502e-05
 Reference value :  2.22507e-05
 Reference value :  2.22514e-05
 Reference value :  2.22530e-05
 Reference value :  2.22545e-05
 Reference value :  2.22612e-05
 Reference value :  2.24632e-05
 Reference value :  2.25001e-05
 Reference value :  2.25002e-05
 Reference value :  2.25008e-05
 Reference value :  2.25020e-05
 Reference value :  2.25034e-05
 Reference value :  2.25062e-05
 Reference value :  2.25095e-05
 Reference value :  2.25292e-05
 Reference value :  2.27501e-05
 Reference value :  2.27502e-05
 Reference value :  2.27507e-05
 Reference value :  2.27514e-05
 Reference value :  2.27530e-05
 Reference value :  2.27540e-05
 Reference value :  2.27550e-05
 Reference value :  2.27566e-05
 Reference value :  2.27636e-05
 Reference value :  2.28080e-05
 Reference value :  2.30007e-05
 Reference value :  2.30027e-05
 Reference value :  2.30040e-05
 Reference value :  2.30051e-05
 Reference value :  2.30070e-05
 Reference value :  2.30098e-05
 Reference value :  2.30110e-05
 Reference value :  2.30132e-05
 Reference value :  2.30152e-05
 Reference value :  2.30173e-05
 Reference value :  2.30232e-05
 Reference value :  2.30564e-05
 Reference value :  2.31750e-05
 Reference value :  2.32501e-05
 Reference value :  2.32502e-05
 Reference value :  2.32503e-05
 Reference value :  2.32504e-05
 Reference value :  2.32510e-05
 Reference value :  2.32519e-05
 Reference value :  2.32530e-05
 Reference value :  2.32534e-05
 Reference value :  2.32545e-05
 Reference value :  2.32573e-05
 Reference value :  2.32646e-05
 Reference value :  2.33107e-05
 Reference value :  2.35000e-05
 Reference value :  2.35001e-05
 Reference value :  2.35001e-05
 Reference value :  2.35003e-05
 Reference value :  2.35012e-05
 Reference value :  2.35020e-05
 Reference value :  2.35029e-05
 Reference value :  2.35047e-05
 Reference value :  2.35062e-05
 Reference value :  2.35077e-05
 Reference value :  2.35109e-05
 Reference value :  2.35204e-05
 Reference value :  2.35810e-05
 Reference value :  2.37501e-05
 Reference value :  2.37502e-05
 Reference value :  2.37503e-05
 Reference value :  2.37503e-05
 Reference value :  2.37507e-05
 Reference value :  2.37514e-05
 Reference value :  2.37530e-05
 Reference value :  2.37534e-05
 Reference value :  2.37545e-05
 Reference value :  2.37558e-05
 Reference value :  2.37602e-05
 Reference value :  2.37818e-05
 Reference value :  2.39526e-05
 Reference value :  2.40000e-05
 Reference value :  2.40001e-05
 Reference value :  2.40002e-05
 Reference value :  2.40005e-05
 Reference value :  2.40012e-05
 Reference value :  2.40016e-05
 Reference value :  2.40024e-05
 Reference value :  2.40029e-05
 Reference value :  2.40040e-05
 Reference value :  2.40050e-05
 Reference value :  2.40071e-05
 Reference value :  2.40100e-05
 Reference value :  2.40122e-05
 Reference value :  2.40143e-05
 Reference value :  2.40163e-05
 Reference value :  2.40191e-05
 Reference value :  2.40287e-05
 Reference value :  2.40731e-05
 Reference value :  2.42501e-05
 Reference value :  2.42502e-05
 Reference value :  2.42507e-05
 Reference value :  2.42519e-05
 Reference value :  2.42530e-05
 Reference value :  2.42534e-05
 Reference value :  2.42546e-05
 Reference value :  2.42560e-05
 Reference value :  2.42589e-05
 Reference value :  2.42724e-05
 Reference value :  2.43726e-05
 Reference value :  2.45000e-05
 Reference value :  2.45001e-05
 Reference value :  2.45002e-05
 Reference value :  2.45005e-05
 Reference value :  2.45012e-05
 Reference value :  2.45020e-05
 Reference value :  2.45029e-05
 Reference value :  2.45040e-05
 Reference value :  2.45055e-05
 Reference value :  2.45062e-05
 Reference value :  2.45077e-05
 Reference value :  2.45096e-05
 Reference value :  2.45205e-05
 Reference value :  2.45470e-05
 Reference value :  2.47501e-05
 Reference value :  2.47502e-05
 Reference value :  2.47503e-05
 Reference value :  2.47507e-05
 Reference value :  2.47514e-05
 Reference value :  2.47530e-05
 Reference value :  2.47534e-05
 Reference value :  2.47545e-05
 Reference value :  2.47558e-05
 Reference value :  2.47582e-05
 Reference value :  2.47698e-05
 Reference value :  2.49566e-05
 Reference value :  2.50001e-05
 Reference value :  2.50002e-05
 Reference value :  2.50005e-05
 Reference value :  2.50012e-05
 Reference value :  2.50016e-05
 Reference value :  2.50029e-05
 Reference value :  2.50040e-05
 Reference value :  2.50050e-05
 Reference value :  2.50064e-05
 Reference value :  2.50088e-05
 Reference value :  2.50226e-05
 Reference value :  2.52501e-05
 Reference value :  2.52502e-05
 Reference value :  2.52503e-05
 Reference value :  2.52507e-05
 Reference value :  2.52514e-05
 Reference value :  2.52530e-05
 Reference value :  2.52545e-05
 Reference value :  2.52562e-05
 Reference value :  2.52619e-05
 Reference value :  2.53821e-05
 Reference value :  2.55000e-05
 Reference value :  2.55000e-05
 Reference value :  2.55000e-05
 Reference value :  2.55001e-05
 Reference value :  2.55001e-05
 Reference value :  2.55007e-05
 Reference value :  2.55020e-05
 Reference value :  2.55029e-05
 Reference value :  2.55040e-05
 Reference value :  2.55045e-05
 Reference value :  2.55049e-05
 Reference value :  2.55055e-05
 Reference value :  2.55090e-05
 Reference value :  2.55224e-05
 Reference value :  2.55263e-05
 Reference value :  2.55292e-05
 Reference value :  2.55341e-05
 Reference value :  2.55373e-05
 Reference value :  2.55410e-05
 Reference value :  2.55472e-05
 Reference value :  2.55654e-05
 Reference value :  2.55780e-05
 Reference value :  2.55822e-05
 Reference value :  2.55864e-05
 Reference value :  2.55932e-05
 Reference value :  2.56063e-05
 Reference value :  2.56327e-05
 Reference value :  2.57501e-05
 Reference value :  2.57502e-05
 Reference value :  2.57503e-05
 Reference value :  2.57510e-05
 Reference value :  2.57519e-05
 Reference value :  2.57534e-05
 Reference value :  2.57559e-05
 Reference value :  2.57647e-05
 Reference value :  2.59715e-05
 Reference value :  2.60001e-05
 Reference value :  2.60002e-05
 Reference value :  2.60005e-05
 Reference value :  2.60012e-05
 Reference value :  2.60019e-05
 Reference value :  2.60028e-05
 Reference value :  2.60046e-05
 Reference value :  2.60064e-05
 Reference value :  2.60088e-05
 Reference value :  2.60112e-05
 Reference value :  2.60124e-05
 Reference value :  2.60154e-05
 Reference value :  2.60335e-05
 Reference value :  2.62501e-05
 Reference value :  2.62502e-05
 Reference value :  2.62502e-05
 Reference value :  2.62507e-05
 Reference value :  2.62514e-05
 Reference value :  2.62530e-05
 Reference value :  2.62540e-05
 Reference value :  2.62558e-05
 Reference value :  2.62582e-05
 Reference value :  2.62666e-05
 Reference value :  2.63056e-05
 Reference value :  2.65011e-05
 Reference value :  2.65043e-05
 Reference value :  2.65063e-05
 Reference value :  2.65091e-05
 Reference value :  2.65108e-05
 Reference value :  2.65124e-05
 Reference value :  2.65138e-05
 Reference value :  2.65163e-05
 Reference value :  2.65202e-05
 Reference value :  2.65495e-05
 Reference value :  2.66790e-05
 Reference value :  2.67501e-05
 Reference value :  2.67502e-05
 Reference value :  2.67503e-05
 Reference value :  2.67510e-05
 Reference value :  2.67514e-05
 Reference value :  2.67523e-05
 Reference value :  2.67533e-05
 Reference value :  2.67543e-05
 Reference value :  2.67567e-05
 Reference value :  2.67688e-05
 Reference value :  2.68495e-05
 Reference value :  2.70000e-05
 Reference value :  2.70001e-05
 Reference value :  2.70002e-05
 Reference value :  2.70008e-05
 Reference value :  2.70015e-05
 Reference value :  2.70028e-05
 Reference value :  2.70039e-05
 Reference value :  2.70060e-05
 Reference value :  2.70075e-05
 Reference value :  2.70103e-05
 Reference value :  2.70221e-05
 Reference value :  2.72501e-05
 Reference value :  2.72502e-05
 Reference value :  2.72503e-05
 Reference value :  2.72510e-05
 Reference value :  2.72519e-05
 Reference value :  2.72534e-05
 Reference value :  2.72545e-05
 Reference value :  2.72558e-05
 Reference value :  2.72575e-05
 Reference value :  2.72597e-05
 Reference value :  2.72675e-05
 Reference value :  2.73205e-05
 Reference value :  2.75000e-05
 Reference value :  2.75001e-05
 Reference value :  2.75001e-05
 Reference value :  2.75003e-05
 Reference value :  2.75008e-05
 Reference value :  2.75016e-05
 Reference value :  2.75024e-05
 Reference value :  2.75034e-05
 Reference value :  2.75044e-05
 Reference value :  2.75053e-05
 Reference value :  2.75076e-05
 Reference value :  2.75093e-05
 Reference value :  2.75111e-05
 Reference value :  2.75127e-05
 Reference value :  2.75145e-05
 Reference value :  2.75164e-05
 Reference value :  2.75247e-05
 Reference value :  2.75925e-05
 Reference value :  2.77501e-05
 Reference value :  2.77502e-05
 Reference value :  2.77503e-05
 Reference value :  2.77504e-05
 Reference value :  2.77510e-05
 Reference value :  2.77514e-05
 Reference value :  2.77523e-05
 Reference value :  2.77534e-05
 Reference value :  2.77546e-05
 Reference value :  2.77560e-05
 Reference value :  2.77618e-05
 Reference value :  2.77875e-05
 Reference value :  2.79867e-05
 Reference value :  2.80002e-05
 Reference value :  2.80009e-05
 Reference value :  2.80015e-05
 Reference value :  2.80029e-05
 Reference value :  2.80048e-05
 Reference value :  2.80063e-05
 Reference value :  2.80079e-05
 Reference value :  2.80097e-05
 Reference value :  2.80167e-05
 Reference value :  2.80594e-05
 Reference value :  2.82501e-05
 Reference value :  2.82502e-05
 Reference value :  2.82502e-05
 Reference value :  2.82504e-05
 Reference value :  2.82514e-05
 Reference value :  2.82530e-05
 Reference value :  2.82540e-05
 Reference value :  2.82550e-05
 Reference value :  2.82566e-05
 Reference value :  2.82583e-05
 Reference value :  2.82636e-05
 Reference value :  2.83767e-05
 Reference value :  2.85001e-05
 Reference value :  2.85002e-05
 Reference value :  2.85012e-05
 Reference value :  2.85024e-05
 Reference value :  2.85039e-05
 Reference value :  2.85053e-05
 Reference value :  2.85076e-05
 Reference value :  2.85093e-05
 Reference value :  2.85102e-05
 Reference value :  2.85127e-05
 Reference value :  2.85154e-05
 Reference value :  2.85210e-05
 Reference value :  2.85414e-05
 Reference value :  2.85752e-05
 Reference value :  2.86174e-05
 Reference value :  2.86330e-05
 Reference value :  2.86403e-05
 Reference value :  2.86683e-05
 Reference value :  2.87501e-05
 Reference value :  2.87502e-05
 Reference value :  2.87504e-05
 Reference value :  2.87514e-05
 Reference value :  2.87530e-05
 Reference value :  2.87546e-05
 Reference value :  2.87616e-05
 Reference value :  2.89870e-05
 Reference value :  2.90002e-05
 Reference value :  2.90012e-05
 Reference value :  2.90019e-05
 Reference value :  2.90029e-05
 Reference value :  2.90048e-05
 Reference value :  2.90063e-05
 Reference value :  2.90078e-05
 Reference value :  2.90106e-05
 Reference value :  2.90590e-05
 Reference value :  2.92387e-05
 Reference value :  2.92501e-05
 Reference value :  2.92502e-05
 Reference value :  2.92503e-05
 Reference value :  2.92510e-05
 Reference value :  2.92519e-05
 Reference value :  2.92530e-05
 Reference value :  2.92540e-05
 Reference value :  2.92550e-05
 Reference value :  2.92566e-05
 Reference value :  2.92595e-05
 Reference value :  2.92885e-05
 Reference value :  2.95000e-05
 Reference value :  2.95001e-05
 Reference value :  2.95002e-05
 Reference value :  2.95012e-05
 Reference value :  2.95024e-05
 Reference value :  2.95039e-05
 Reference value :  2.95054e-05
 Reference value :  2.95076e-05
 Reference value :  2.95093e-05
 Reference value :  2.95111e-05
 Reference value :  2.95136e-05
 Reference value :  2.95176e-05
 Reference value :  2.95229e-05
 Reference value :  2.95485e-05
 Reference value :  2.95930e-05
 Reference value :  2.96805e-05
 Reference value :  2.97501e-05
 Reference value :  2.97502e-05
 Reference value :  2.97503e-05
 Reference value :  2.97510e-05
 Reference value :  2.97523e-05
 Reference value :  2.97535e-05
 Reference value :  2.97546e-05
 Reference value :  2.97574e-05
 Reference value :  2.97867e-05
 Reference value :  3.00000e-05
 Reference value :  3.00001e-05
 Reference value :  3.00003e-05
 Reference value :  3.00012e-05
 Reference value :  3.00020e-05
 Reference value :  3.00029e-05
 Reference value :  3.00034e-05
 Reference value :  3.00047e-05
 Reference value :  3.00062e-05
 Reference value :  3.00077e-05
 Reference value :  3.00109e-05
 Reference value :  3.00205e-05
 Reference value :  3.00826e-05
 Reference value :  3.02501e-05
 Reference value :  3.02502e-05
 Reference value :  3.02502e-05
 Reference value :  3.02504e-05
 Reference value :  3.02514e-05
 Reference value :  3.02530e-05
 Reference value :  3.02540e-05
 Reference value :  3.02550e-05
 Reference value :  3.02582e-05
 Reference value :  3.02697e-05
 Reference value :  3.05000e-05
 Reference value :  3.05008e-05
 Reference value :  3.05031e-05
 Reference value :  3.05045e-05
 Reference value :  3.05056e-05
 Reference value :  3.05094e-05
 Reference value :  3.05120e-05
 Reference value :  3.05138e-05
 Reference value :  3.05158e-05
 Reference value :  3.05197e-05
 Reference value :  3.05308e-05
 Reference value :  3.05650e-05
 Reference value :  3.06463e-05
 Reference value :  3.07501e-05
 Reference value :  3.07502e-05
 Reference value :  3.07503e-05
 Reference value :  3.07510e-05
 Reference value :  3.07519e-05
 Reference value :  3.07530e-05
 Reference value :  3.07539e-05
 Reference value :  3.07551e-05
 Reference value :  3.07586e-05
 Reference value :  3.07710e-05
 Reference value :  3.09646e-05
 Reference value :  3.10001e-05
 Reference value :  3.10002e-05
 Reference value :  3.10005e-05
 Reference value :  3.10016e-05
 Reference value :  3.10029e-05
 Reference value :  3.10040e-05
 Reference value :  3.10055e-05
 Reference value :  3.10062e-05
 Reference value :  3.10077e-05
 Reference value :  3.10109e-05
 Reference value :  3.10293e-05
 Reference value :  3.12501e-05
 Reference value :  3.12502e-05
 Reference value :  3.12503e-05
 Reference value :  3.12510e-05
 Reference value :  3.12519e-05
 Reference value :  3.12530e-05
 Reference value :  3.12540e-05
 Reference value :  3.12550e-05
 Reference value :  3.12582e-05
 Reference value :  3.12826e-05
 Reference value :  3.15000e-05
 Reference value :  3.15001e-05
 Reference value :  3.15002e-05
 Reference value :  3.15008e-05
 Reference value :  3.15016e-05
 Reference value :  3.15029e-05
 Reference value :  3.15050e-05
 Reference value :  3.15085e-05
 Reference value :  3.15112e-05
 Reference value :  3.15143e-05
 Reference value :  3.15174e-05
 Reference value :  3.15286e-05
 Reference value :  3.15820e-05
 Reference value :  3.17501e-05
 Reference value :  3.17502e-05
 Reference value :  3.17504e-05
 Reference value :  3.17514e-05
 Reference value :  3.17530e-05
 Reference value :  3.17540e-05
 Reference value :  3.17560e-05
 Reference value :  3.17652e-05
 Reference value :  3.18730e-05
 Reference value :  3.20000e-05
 Reference value :  3.20001e-05
 Reference value :  3.20003e-05
 Reference value :  3.20012e-05
 Reference value :  3.20020e-05
 Reference value :  3.20029e-05
 Reference value :  3.20047e-05
 Reference value :  3.20062e-05
 Reference value :  3.20077e-05
 Reference value :  3.20125e-05
 Reference value :  3.20822e-05
 Reference value :  3.22501e-05
 Reference value :  3.22503e-05
 Reference value :  3.22510e-05
 Reference value :  3.22523e-05
 Reference value :  3.22534e-05
 Reference value :  3.22550e-05
 Reference value :  3.22566e-05
 Reference value :  3.22823e-05
 Reference value :  3.25000e-05
 Reference value :  3.25001e-05
 Reference value :  3.25002e-05
 Reference value :  3.25008e-05
 Reference value :  3.25016e-05
 Reference value :  3.25029e-05
 Reference value :  3.25045e-05
 Reference value :  3.25063e-05
 Reference value :  3.25100e-05
 Reference value :  3.25122e-05
 Reference value :  3.25143e-05
 Reference value :  3.25162e-05
 Reference value :  3.25207e-05
 Reference value :  3.25494e-05
 Reference value :  3.27501e-05
 Reference value :  3.27502e-05
 Reference value :  3.27503e-05
 Reference value :  3.27507e-05
 Reference value :  3.27514e-05
 Reference value :  3.27523e-05
 Reference value :  3.27534e-05
 Reference value :  3.27546e-05
 Reference value :  3.27574e-05
 Reference value :  3.27652e-05
 Reference value :  3.28153e-05
 Reference value :  3.30000e-05
 Reference value :  3.30001e-05
 Reference value :  3.30001e-05
 Reference value :  3.30003e-05
 Reference value :  3.30008e-05
 Reference value :  3.30016e-05
 Reference value :  3.30029e-05
 Reference value :  3.30047e-05
 Reference value :  3.30062e-05
 Reference value :  3.30077e-05
 Reference value :  3.30109e-05
 Reference value :  3.30295e-05
 Reference value :  3.32501e-05
 Reference value :  3.32502e-05
 Reference value :  3.32503e-05
 Reference value :  3.32510e-05
 Reference value :  3.32519e-05
 Reference value :  3.32534e-05
 Reference value :  3.32550e-05
 Reference value :  3.32582e-05
 Reference value :  3.33569e-05
 Reference value :  3.35007e-05
 Reference value :  3.35030e-05
 Reference value :  3.35051e-05
 Reference value :  3.35071e-05
 Reference value :  3.35097e-05
 Reference value :  3.35327e-05
 Reference value :  3.37502e-05
 Reference value :  3.37503e-05
 Reference value :  3.37510e-05
 Reference value :  3.37519e-05
 Reference value :  3.37529e-05
 Reference value :  3.37553e-05
 Reference value :  3.37576e-05
 Reference value :  3.37739e-05
 Reference value :  3.40000e-05
 Reference value :  3.40000e-05
 Reference value :  3.40000e-05
 Reference value :  3.40001e-05
 Reference value :  3.40001e-05
 Reference value :  3.40003e-05
 Reference value :  3.40012e-05
 Reference value :  3.40020e-05
 Reference value :  3.40029e-05
 Reference value :  3.40045e-05
 Reference value :  3.40055e-05
 Reference value :  3.40090e-05
 Reference value :  3.40224e-05
 Reference value :  3.40263e-05
 Reference value :  3.40292e-05
 Reference value :  3.40341e-05
 Reference value :  3.40373e-05
 Reference value :  3.40410e-05
 Reference value :  3.40513e-05
 Reference value :  3.40728e-05
 Reference value :  3.40842e-05
 Reference value :  3.40921e-05
 Reference value :  3.40994e-05
 Reference value :  3.41087e-05
 Reference value :  3.41356e-05
 Reference value :  3.42501e-05
 Reference value :  3.42502e-05
 Reference value :  3.42502e-05
 Reference value :  3.42507e-05
 Reference value :  3.42514e-05
 Reference value :  3.42530e-05
 Reference value :  3.42534e-05
 Reference value :  3.42545e-05
 Reference value :  3.42559e-05
 Reference value :  3.42614e-05
 Reference value :  3.43114e-05
 Reference value :  3.45000e-05
 Reference value :  3.45001e-05
 Reference value :  3.45002e-05
 Reference value :  3.45008e-05
 Reference value :  3.45019e-05
 Reference value :  3.45033e-05
 Reference value :  3.45064e-05
 Reference value :  3.45099e-05
 Reference value :  3.45124e-05
 Reference value :  3.45172e-05
 Reference value :  3.45489e-05
 Reference value :  3.47501e-05
 Reference value :  3.47502e-05
 Reference value :  3.47503e-05
 Reference value :  3.47504e-05
 Reference value :  3.47514e-05
 Reference value :  3.47530e-05
 Reference value :  3.47540e-05
 Reference value :  3.47550e-05
 Reference value :  3.47566e-05
 Reference value :  3.47596e-05
 Reference value :  3.47729e-05
 Reference value :  3.49356e-05
 Reference value :  3.50000e-05
 Reference value :  3.50001e-05
 Reference value :  3.50003e-05
 Reference value :  3.50012e-05
 Reference value :  3.50020e-05
 Reference value :  3.50029e-05
 Reference value :  3.50039e-05
 Reference value :  3.50048e-05
 Reference value :  3.50066e-05
 Reference value :  3.50084e-05
 Reference value :  3.50102e-05
 Reference value :  3.50119e-05
 Reference value :  3.50136e-05
 Reference value :  3.50154e-05
 Reference value :  3.50175e-05
 Reference value :  3.50317e-05
 Reference value :  3.51084e-05
 Reference value :  3.52501e-05
 Reference value :  3.52502e-05
 Reference value :  3.52503e-05
 Reference value :  3.52514e-05
 Reference value :  3.52530e-05
 Reference value :  3.52546e-05
 Reference value :  3.52575e-05
 Reference value :  3.53757e-05
 Reference value :  3.55001e-05
 Reference value :  3.55002e-05
 Reference value :  3.55008e-05
 Reference value :  3.55019e-05
 Reference value :  3.55028e-05
 Reference value :  3.55046e-05
 Reference value :  3.55060e-05
 Reference value :  3.55075e-05
 Reference value :  3.55103e-05
 Reference value :  3.55474e-05
 Reference value :  3.57501e-05
 Reference value :  3.57502e-05
 Reference value :  3.57507e-05
 Reference value :  3.57514e-05
 Reference value :  3.57523e-05
 Reference value :  3.57534e-05
 Reference value :  3.57545e-05
 Reference value :  3.57558e-05
 Reference value :  3.57575e-05
 Reference value :  3.57596e-05
 Reference value :  3.57673e-05
 Reference value :  3.59970e-05
 Reference value :  3.60001e-05
 Reference value :  3.60001e-05
 Reference value :  3.60003e-05
 Reference value :  3.60009e-05
 Reference value :  3.60016e-05
 Reference value :  3.60024e-05
 Reference value :  3.60034e-05
 Reference value :  3.60044e-05
 Reference value :  3.60053e-05
 Reference value :  3.60076e-05
 Reference value :  3.60102e-05
 Reference value :  3.60119e-05
 Reference value :  3.60135e-05
 Reference value :  3.60162e-05
 Reference value :  3.60188e-05
 Reference value :  3.60293e-05
 Reference value :  3.60803e-05
 Reference value :  3.62501e-05
 Reference value :  3.62502e-05
 Reference value :  3.62502e-05
 Reference value :  3.62504e-05
 Reference value :  3.62510e-05
 Reference value :  3.62519e-05
 Reference value :  3.62530e-05
 Reference value :  3.62540e-05
 Reference value :  3.62560e-05
 Reference value :  3.62618e-05
 Reference value :  3.62875e-05
 Reference value :  3.65000e-05
 Reference value :  3.65001e-05
 Reference value :  3.65002e-05
 Reference value :  3.65005e-05
 Reference value :  3.65012e-05
 Reference value :  3.65019e-05
 Reference value :  3.65028e-05
 Reference value :  3.65039e-05
 Reference value :  3.65054e-05
 Reference value :  3.65060e-05
 Reference value :  3.65075e-05
 Reference value :  3.65103e-05
 Reference value :  3.65221e-05
 Reference value :  3.66422e-05
 Reference value :  3.67501e-05
 Reference value :  3.67502e-05
 Reference value :  3.67504e-05
 Reference value :  3.67510e-05
 Reference value :  3.67519e-05
 Reference value :  3.67534e-05
 Reference value :  3.67550e-05
 Reference value :  3.67575e-05
 Reference value :  3.67636e-05
 Reference value :  3.69987e-05
 Reference value :  3.70001e-05
 Reference value :  3.70002e-05
 Reference value :  3.70005e-05
 Reference value :  3.70012e-05
 Reference value :  3.70020e-05
 Reference value :  3.70029e-05
 Reference value :  3.70039e-05
 Reference value :  3.70048e-05
 Reference value :  3.70059e-05
 Reference value :  3.70076e-05
 Reference value :  3.70102e-05
 Reference value :  3.70119e-05
 Reference value :  3.70145e-05
 Reference value :  3.70174e-05
 Reference value :  3.70414e-05
 Reference value :  3.70947e-05
 Reference value :  3.71117e-05
 Reference value :  3.71343e-05
 Reference value :  3.71987e-05
 Reference value :  3.72502e-05
 Reference value :  3.72503e-05
 Reference value :  3.72514e-05
 Reference value :  3.72530e-05
 Reference value :  3.72546e-05
 Reference value :  3.72616e-05
 Reference value :  3.74864e-05
 Reference value :  3.75001e-05
 Reference value :  3.75003e-05
 Reference value :  3.75012e-05
 Reference value :  3.75020e-05
 Reference value :  3.75034e-05
 Reference value :  3.75055e-05
 Reference value :  3.75069e-05
 Reference value :  3.75096e-05
 Reference value :  3.75473e-05
 Reference value :  3.77501e-05
 Reference value :  3.77502e-05
 Reference value :  3.77507e-05
 Reference value :  3.77519e-05
 Reference value :  3.77534e-05
 Reference value :  3.77550e-05
 Reference value :  3.77582e-05
 Reference value :  3.78072e-05
 Reference value :  3.80000e-05
 Reference value :  3.80002e-05
 Reference value :  3.80008e-05
 Reference value :  3.80020e-05
 Reference value :  3.80034e-05
 Reference value :  3.80050e-05
 Reference value :  3.80071e-05
 Reference value :  3.80112e-05
 Reference value :  3.80122e-05
 Reference value :  3.80143e-05
 Reference value :  3.80163e-05
 Reference value :  3.80207e-05
 Reference value :  3.80333e-05
 Reference value :  3.80402e-05
 Reference value :  3.80444e-05
 Reference value :  3.80543e-05
 Reference value :  3.80729e-05
 Reference value :  3.81286e-05
 Reference value :  3.82501e-05
 Reference value :  3.82502e-05
 Reference value :  3.82502e-05
 Reference value :  3.82504e-05
 Reference value :  3.82510e-05
 Reference value :  3.82519e-05
 Reference value :  3.82534e-05
 Reference value :  3.82559e-05
 Reference value :  3.82719e-05
 Reference value :  3.84797e-05
 Reference value :  3.85004e-05
 Reference value :  3.85014e-05
 Reference value :  3.85028e-05
 Reference value :  3.85039e-05
 Reference value :  3.85054e-05
 Reference value :  3.85060e-05
 Reference value :  3.85075e-05
 Reference value :  3.85092e-05
 Reference value :  3.85114e-05
 Reference value :  3.85167e-05
 Reference value :  3.85325e-05
 Reference value :  3.85939e-05
 Reference value :  3.87501e-05
 Reference value :  3.87501e-05
 Reference value :  3.87502e-05
 Reference value :  3.87503e-05
 Reference value :  3.87504e-05
 Reference value :  3.87510e-05
 Reference value :  3.87519e-05
 Reference value :  3.87530e-05
 Reference value :  3.87534e-05
 Reference value :  3.87545e-05
 Reference value :  3.87558e-05
 Reference value :  3.87575e-05
 Reference value :  3.87596e-05
 Reference value :  3.87673e-05
 Reference value :  3.88193e-05
 Reference value :  3.90000e-05
 Reference value :  3.90001e-05
 Reference value :  3.90001e-05
 Reference value :  3.90003e-05
 Reference value :  3.90008e-05
 Reference value :  3.90016e-05
 Reference value :  3.90024e-05
 Reference value :  3.90029e-05
 Reference value :  3.90039e-05
 Reference value :  3.90048e-05
 Reference value :  3.90059e-05
 Reference value :  3.90076e-05
 Reference value :  3.90084e-05
 Reference value :  3.90102e-05
 Reference value :  3.90119e-05
 Reference value :  3.90136e-05
 Reference value :  3.90154e-05
 Reference value :  3.90176e-05
 Reference value :  3.90249e-05
 Reference value :  3.90505e-05
 Reference value :  3.90788e-05
 Reference value :  3.91229e-05
 Reference value :  3.92501e-05
 Reference value :  3.92502e-05
 Reference value :  3.92502e-05
 Reference value :  3.92504e-05
 Reference value :  3.92510e-05
 Reference value :  3.92519e-05
 Reference value :  3.92530e-05
 Reference value :  3.92540e-05
 Reference value :  3.92553e-05
 Reference value :  3.92590e-05
 Reference value :  3.92728e-05
 Reference value :  3.93755e-05
 Reference value :  3.95000e-05
 Reference value :  3.95001e-05
 Reference value :  3.95002e-05
 Reference value :  3.95008e-05
 Reference value :  3.95015e-05
 Reference value :  3.95023e-05
 Reference value :  3.95028e-05
 Reference value :  3.95039e-05
 Reference value :  3.95054e-05
 Reference value :  3.95060e-05
 Reference value :  3.95075e-05
 Reference value :  3.95092e-05
 Reference value :  3.95103e-05
 Reference value :  3.95167e-05
 Reference value :  3.95474e-05
 Reference value :  3.97501e-05
 Reference value :  3.97501e-05
 Reference value :  3.97502e-05
 Reference value :  3.97503e-05
 Reference value :  3.97510e-05
 Reference value :  3.97519e-05
 Reference value :  3.97530e-05
 Reference value :  3.97540e-05
 Reference value :  3.97550e-05
 Reference value :  3.97575e-05
 Reference value :  3.97673e-05
 Reference value :  3.99944e-05
 Reference value :  4.00000e-05
 Reference value :  4.00001e-05
 Reference value :  4.00003e-05
 Reference value :  4.00008e-05
 Reference value :  4.00016e-05
 Reference value :  4.00024e-05
 Reference value :  4.00034e-05
 Reference value :  4.00039e-05
 Reference value :  4.00048e-05
 Reference value :  4.00066e-05
 Reference value :  4.00085e-05
 Reference value :  4.00102e-05
 Reference value :  4.00119e-05
 Reference value :  4.00144e-05
 Reference value :  4.00164e-05
 Reference value :  4.00190e-05
 Reference value :  4.00277e-05
 Reference value :  4.00472e-05
 Reference value :  4.01747e-05
 Reference value :  4.02501e-05
 Reference value :  4.02502e-05
 Reference value :  4.02503e-05
 Reference value :  4.02510e-05
 Reference value :  4.02519e-05
 Reference value :  4.02530e-05
 Reference value :  4.02534e-05
 Reference value :  4.02546e-05
 Reference value :  4.02575e-05
 Reference value :  4.02654e-05
 Reference value :  4.03168e-05
 Reference value :  4.05000e-05
 Reference value :  4.05001e-05
 Reference value :  4.05001e-05
 Reference value :  4.05003e-05
 Reference value :  4.05012e-05
 Reference value :  4.05015e-05
 Reference value :  4.05028e-05
 Reference value :  4.05046e-05
 Reference value :  4.05060e-05
 Reference value :  4.05075e-05
 Reference value :  4.05103e-05
 Reference value :  4.05221e-05
 Reference value :  4.06423e-05
 Reference value :  4.07502e-05
 Reference value :  4.07503e-05
 Reference value :  4.07507e-05
 Reference value :  4.07514e-05
 Reference value :  4.07523e-05
 Reference value :  4.07530e-05
 Reference value :  4.07534e-05
 Reference value :  4.07545e-05
 Reference value :  4.07558e-05
 Reference value :  4.07575e-05
 Reference value :  4.07596e-05
 Reference value :  4.07746e-05
 Reference value :  4.09946e-05
 Reference value :  4.10001e-05
 Reference value :  4.10001e-05
 Reference value :  4.10002e-05
 Reference value :  4.10007e-05
 Reference value :  4.10015e-05
 Reference value :  4.10028e-05
 Reference value :  4.10038e-05
 Reference value :  4.10047e-05
 Reference value :  4.10063e-05
 Reference value :  4.10091e-05
 Reference value :  4.10109e-05
 Reference value :  4.10128e-05
 Reference value :  4.10147e-05
 Reference value :  4.10169e-05
 Reference value :  4.10218e-05
 Reference value :  4.10461e-05
 Reference value :  4.11562e-05
 Reference value :  4.12501e-05
 Reference value :  4.12502e-05
 Reference value :  4.12503e-05
 Reference value :  4.12510e-05
 Reference value :  4.12519e-05
 Reference value :  4.12530e-05
 Reference value :  4.12540e-05
 Reference value :  4.12560e-05
 Reference value :  4.12654e-05
 Reference value :  4.13749e-05
 Reference value :  4.15000e-05
 Reference value :  4.15001e-05
 Reference value :  4.15002e-05
 Reference value :  4.15008e-05
 Reference value :  4.15015e-05
 Reference value :  4.15028e-05
 Reference value :  4.15046e-05
 Reference value :  4.15060e-05
 Reference value :  4.15075e-05
 Reference value :  4.15103e-05
 Reference value :  4.15222e-05
 Reference value :  4.15792e-05
 Reference value :  4.17501e-05
 Reference value :  4.17502e-05
 Reference value :  4.17503e-05
 Reference value :  4.17510e-05
 Reference value :  4.17514e-05
 Reference value :  4.17523e-05
 Reference value :  4.17534e-05
 Reference value :  4.17540e-05
 Reference value :  4.17545e-05
 Reference value :  4.17558e-05
 Reference value :  4.17575e-05
 Reference value :  4.17596e-05
 Reference value :  4.17671e-05
 Reference value :  4.18749e-05
 Reference value :  4.20000e-05
 Reference value :  4.20001e-05
 Reference value :  4.20002e-05
 Reference value :  4.20008e-05
 Reference value :  4.20016e-05
 Reference value :  4.20024e-05
 Reference value :  4.20029e-05
 Reference value :  4.20039e-05
 Reference value :  4.20048e-05
 Reference value :  4.20066e-05
 Reference value :  4.20090e-05
 Reference value :  4.20138e-05
 Reference value :  4.20201e-05
 Reference value :  4.20651e-05
 Reference value :  4.22123e-05
 Reference value :  4.22502e-05
 Reference value :  4.22503e-05
 Reference value :  4.22507e-05
 Reference value :  4.22514e-05
 Reference value :  4.22530e-05
 Reference value :  4.22553e-05
 Reference value :  4.22592e-05
 Reference value :  4.22915e-05
 Reference value :  4.24415e-05
 Reference value :  4.25000e-05
 Reference value :  4.25000e-05
 Reference value :  4.25000e-05
 Reference value :  4.25000e-05
 Reference value :  4.25001e-05
 Reference value :  4.25001e-05
 Reference value :  4.25004e-05
 Reference value :  4.25016e-05
 Reference value :  4.25024e-05
 Reference value :  4.25035e-05
 Reference value :  4.25045e-05
 Reference value :  4.25090e-05
 Reference value :  4.25226e-05
 Reference value :  4.25295e-05
 Reference value :  4.25366e-05
 Reference value :  4.25459e-05
 Reference value :  4.25658e-05
 Reference value :  4.26100e-05
 Reference value :  4.27501e-05
 Reference value :  4.27502e-05
 Reference value :  4.27504e-05
 Reference value :  4.27514e-05
 Reference value :  4.27530e-05
 Reference value :  4.27545e-05
 Reference value :  4.27587e-05
 Reference value :  4.27848e-05
 Reference value :  4.30000e-05
 Reference value :  4.30001e-05
 Reference value :  4.30002e-05
 Reference value :  4.30005e-05
 Reference value :  4.30012e-05
 Reference value :  4.30019e-05
 Reference value :  4.30028e-05
 Reference value :  4.30039e-05
 Reference value :  4.30064e-05
 Reference value :  4.30088e-05
 Reference value :  4.30124e-05
 Reference value :  4.30203e-05
 Reference value :  4.32501e-05
 Reference value :  4.32502e-05
 Reference value :  4.32510e-05
 Reference value :  4.32523e-05
 Reference value :  4.32540e-05
 Reference value :  4.32558e-05
 Reference value :  4.32581e-05
 Reference value :  4.32713e-05
 Reference value :  4.34775e-05
 Reference value :  4.35004e-05
 Reference value :  4.35016e-05
 Reference value :  4.35025e-05
 Reference value :  4.35036e-05
 Reference value :  4.35047e-05
 Reference value :  4.35057e-05
 Reference value :  4.35074e-05
 Reference value :  4.35093e-05
 Reference value :  4.35113e-05
 Reference value :  4.35121e-05
 Reference value :  4.35137e-05
 Reference value :  4.35165e-05
 Reference value :  4.35342e-05
 Reference value :  4.37017e-05
 Reference value :  4.37502e-05
 Reference value :  4.37503e-05
 Reference value :  4.37514e-05
 Reference value :  4.37530e-05
 Reference value :  4.37545e-05
 Reference value :  4.37614e-05
 Reference value :  4.38616e-05
 Reference value :  4.40001e-05
 Reference value :  4.40002e-05
 Reference value :  4.40008e-05
 Reference value :  4.40015e-05
 Reference value :  4.40028e-05
 Reference value :  4.40046e-05
 Reference value :  4.40060e-05
 Reference value :  4.40075e-05
 Reference value :  4.40103e-05
 Reference value :  4.40315e-05
 Reference value :  4.42501e-05
 Reference value :  4.42502e-05
 Reference value :  4.42503e-05
 Reference value :  4.42507e-05
 Reference value :  4.42514e-05
 Reference value :  4.42530e-05
 Reference value :  4.42540e-05
 Reference value :  4.42550e-05
 Reference value :  4.42558e-05
 Reference value :  4.42575e-05
 Reference value :  4.42597e-05
 Reference value :  4.42675e-05
 Reference value :  4.43205e-05
 Reference value :  4.45000e-05
 Reference value :  4.45001e-05
 Reference value :  4.45001e-05
 Reference value :  4.45003e-05
 Reference value :  4.45012e-05
 Reference value :  4.45020e-05
 Reference value :  4.45029e-05
 Reference value :  4.45039e-05
 Reference value :  4.45048e-05
 Reference value :  4.45066e-05
 Reference value :  4.45084e-05
 Reference value :  4.45102e-05
 Reference value :  4.45119e-05
 Reference value :  4.45136e-05
 Reference value :  4.45154e-05
 Reference value :  4.45175e-05
 Reference value :  4.45315e-05
 Reference value :  4.46405e-05
 Reference value :  4.47501e-05
 Reference value :  4.47503e-05
 Reference value :  4.47510e-05
 Reference value :  4.47523e-05
 Reference value :  4.47546e-05
 Reference value :  4.47654e-05
 Reference value :  4.50000e-05
 Reference value :  4.50001e-05
 Reference value :  4.50005e-05
 Reference value :  4.50015e-05
 Reference value :  4.50028e-05
 Reference value :  4.50039e-05
 Reference value :  4.50060e-05
 Reference value :  4.50075e-05
 Reference value :  4.50103e-05
 Reference value :  4.50315e-05
 Reference value :  4.52501e-05
 Reference value :  4.52503e-05
 Reference value :  4.52510e-05
 Reference value :  4.52519e-05
 Reference value :  4.52530e-05
 Reference value :  4.52534e-05
 Reference value :  4.52545e-05
 Reference value :  4.52558e-05
 Reference value :  4.52575e-05
 Reference value :  4.52596e-05
 Reference value :  4.52673e-05
 Reference value :  4.53192e-05
 Reference value :  4.55000e-05
 Reference value :  4.55000e-05
 Reference value :  4.55001e-05
 Reference value :  4.55002e-05
 Reference value :  4.55005e-05
 Reference value :  4.55012e-05
 Reference value :  4.55016e-05
 Reference value :  4.55024e-05
 Reference value :  4.55034e-05
 Reference value :  4.55044e-05
 Reference value :  4.55053e-05
 Reference value :  4.55066e-05
 Reference value :  4.55076e-05
 Reference value :  4.55093e-05
 Reference value :  4.55102e-05
 Reference value :  4.55119e-05
 Reference value :  4.55136e-05
 Reference value :  4.55154e-05
 Reference value :  4.55175e-05
 Reference value :  4.55410e-05
 Reference value :  4.55934e-05
 Reference value :  4.56100e-05
 Reference value :  4.56317e-05
 Reference value :  4.56456e-05
 Reference value :  4.57105e-05
 Reference value :  4.57501e-05
 Reference value :  4.57502e-05
 Reference value :  4.57502e-05
 Reference value :  4.57503e-05
 Reference value :  4.57507e-05
 Reference value :  4.57514e-05
 Reference value :  4.57530e-05
 Reference value :  4.57535e-05
 Reference value :  4.57546e-05
 Reference value :  4.57574e-05
 Reference value :  4.57652e-05
 Reference value :  4.57867e-05
 Reference value :  4.58728e-05
 Reference value :  4.60000e-05
 Reference value :  4.60002e-05
 Reference value :  4.60009e-05
 Reference value :  4.60015e-05
 Reference value :  4.60023e-05
 Reference value :  4.60027e-05
 Reference value :  4.60038e-05
 Reference value :  4.60053e-05
 Reference value :  4.60059e-05
 Reference value :  4.60074e-05
 Reference value :  4.60101e-05
 Reference value :  4.60227e-05
 Reference value :  4.61068e-05
 Reference value :  4.62501e-05
 Reference value :  4.62502e-05
 Reference value :  4.62503e-05
 Reference value :  4.62510e-05
 Reference value :  4.62519e-05
 Reference value :  4.62530e-05
 Reference value :  4.62540e-05
 Reference value :  4.62545e-05
 Reference value :  4.62558e-05
 Reference value :  4.62602e-05
 Reference value :  4.62818e-05
 Reference value :  4.64525e-05
 Reference value :  4.65000e-05
 Reference value :  4.65001e-05
 Reference value :  4.65002e-05
 Reference value :  4.65008e-05
 Reference value :  4.65016e-05
 Reference value :  4.65024e-05
 Reference value :  4.65034e-05
 Reference value :  4.65045e-05
 Reference value :  4.65055e-05
 Reference value :  4.65085e-05
 Reference value :  4.65112e-05
 Reference value :  4.65132e-05
 Reference value :  4.65152e-05
 Reference value :  4.65174e-05
 Reference value :  4.65240e-05
 Reference value :  4.65336e-05
 Reference value :  4.65426e-05
 Reference value :  4.65522e-05
 Reference value :  4.65576e-05
 Reference value :  4.65768e-05
 Reference value :  4.66614e-05
 Reference value :  4.67501e-05
 Reference value :  4.67502e-05
 Reference value :  4.67503e-05
 Reference value :  4.67507e-05
 Reference value :  4.67514e-05
 Reference value :  4.67530e-05
 Reference value :  4.67539e-05
 Reference value :  4.67559e-05
 Reference value :  4.67649e-05
 Reference value :  4.68689e-05
 Reference value :  4.70001e-05
 Reference value :  4.70002e-05
 Reference value :  4.70008e-05
 Reference value :  4.70019e-05
 Reference value :  4.70033e-05
 Reference value :  4.70054e-05
 Reference value :  4.70066e-05
 Reference value :  4.70084e-05
 Reference value :  4.70103e-05
 Reference value :  4.70316e-05
 Reference value :  4.72501e-05
 Reference value :  4.72502e-05
 Reference value :  4.72504e-05
 Reference value :  4.72514e-05
 Reference value :  4.72530e-05
 Reference value :  4.72540e-05
 Reference value :  4.72558e-05
 Reference value :  4.72584e-05
 Reference value :  4.72636e-05
 Reference value :  4.73797e-05
 Reference value :  4.75000e-05
 Reference value :  4.75001e-05
 Reference value :  4.75003e-05
 Reference value :  4.75012e-05
 Reference value :  4.75020e-05
 Reference value :  4.75029e-05
 Reference value :  4.75039e-05
 Reference value :  4.75048e-05
 Reference value :  4.75066e-05
 Reference value :  4.75084e-05
 Reference value :  4.75102e-05
 Reference value :  4.75119e-05
 Reference value :  4.75135e-05
 Reference value :  4.75163e-05
 Reference value :  4.75302e-05
 Reference value :  4.75656e-05
 Reference value :  4.76379e-05
 Reference value :  4.77501e-05
 Reference value :  4.77502e-05
 Reference value :  4.77504e-05
 Reference value :  4.77514e-05
 Reference value :  4.77530e-05
 Reference value :  4.77540e-05
 Reference value :  4.77560e-05
 Reference value :  4.77618e-05
 Reference value :  4.77875e-05
 Reference value :  4.79933e-05
[...]
 Reference value :  1.65726e-04
 Reference value :  1.65750e-04
 Reference value :  1.65750e-04
 Reference value :  1.65750e-04
 Reference value :  1.65751e-04
 Reference value :  1.65751e-04
 Reference value :  1.65753e-04
 Reference value :  1.65754e-04
 Reference value :  1.65755e-04
 Reference value :  1.65759e-04
 Reference value :  1.65786e-04
 Reference value :  1.66000e-04
 Reference value :  1.66000e-04
 Reference value :  1.66000e-04
 Reference value :  1.66000e-04
 Reference value :  1.66001e-04
 Reference value :  1.66002e-04
 Reference value :  1.66002e-04
 Reference value :  1.66003e-04
 Reference value :  1.66005e-04
 Reference value :  1.66006e-04
 Reference value :  1.66008e-04
 Reference value :  1.66011e-04
 Reference value :  1.66022e-04
 Reference value :  1.66143e-04
 Reference value :  1.66250e-04
 Reference value :  1.66250e-04
 Reference value :  1.66250e-04
 Reference value :  1.66251e-04
 Reference value :  1.66252e-04
 Reference value :  1.66253e-04
 Reference value :  1.66253e-04
 Reference value :  1.66254e-04
 Reference value :  1.66256e-04
 Reference value :  1.66258e-04
 Reference value :  1.66260e-04
 Reference value :  1.66267e-04
 Reference value :  1.66320e-04
 Reference value :  1.66500e-04
 Reference value :  1.66500e-04
 Reference value :  1.66500e-04
 Reference value :  1.66500e-04
 Reference value :  1.66501e-04
 Reference value :  1.66501e-04
 Reference value :  1.66502e-04
 Reference value :  1.66502e-04
 Reference value :  1.66503e-04
 Reference value :  1.66504e-04
 Reference value :  1.66505e-04
 Reference value :  1.66506e-04
 Reference value :  1.66508e-04
 Reference value :  1.66508e-04
 Reference value :  1.66509e-04
 Reference value :  1.66510e-04
 Reference value :  1.66512e-04
 Reference value :  1.66514e-04
 Reference value :  1.66515e-04
 Reference value :  1.66517e-04
 Reference value :  1.66530e-04
 Reference value :  1.66543e-04
 Reference value :  1.66556e-04
 Reference value :  1.66563e-04
 Reference value :  1.66573e-04
 Reference value :  1.66600e-04
 Reference value :  1.66713e-04
 Reference value :  1.66750e-04
 Reference value :  1.66750e-04
 Reference value :  1.66750e-04
 Reference value :  1.66751e-04
 Reference value :  1.66753e-04
 Reference value :  1.66754e-04
 Reference value :  1.66756e-04
 Reference value :  1.66765e-04
 Reference value :  1.66872e-04
 Reference value :  1.66932e-04
 Reference value :  1.67000e-04
 Reference value :  1.67000e-04
 Reference value :  1.67000e-04
 Reference value :  1.67001e-04
 Reference value :  1.67002e-04
 Reference value :  1.67003e-04
 Reference value :  1.67004e-04
 Reference value :  1.67005e-04
 Reference value :  1.67006e-04
 Reference value :  1.67007e-04
 Reference value :  1.67010e-04
 Reference value :  1.67048e-04
 Reference value :  1.67250e-04
 Reference value :  1.67250e-04
 Reference value :  1.67251e-04
 Reference value :  1.67251e-04
 Reference value :  1.67253e-04
 Reference value :  1.67253e-04
 Reference value :  1.67254e-04
 Reference value :  1.67256e-04
 Reference value :  1.67257e-04
 Reference value :  1.67261e-04
 Reference value :  1.67274e-04
 Reference value :  1.67372e-04
 Reference value :  1.67500e-04
 Reference value :  1.67500e-04
 Reference value :  1.67500e-04
 Reference value :  1.67500e-04
 Reference value :  1.67501e-04
 Reference value :  1.67502e-04
 Reference value :  1.67502e-04
 Reference value :  1.67503e-04
 Reference value :  1.67504e-04
 Reference value :  1.67505e-04
 Reference value :  1.67508e-04
 Reference value :  1.67509e-04
 Reference value :  1.67510e-04
 Reference value :  1.67512e-04
 Reference value :  1.67514e-04
 Reference value :  1.67515e-04
 Reference value :  1.67517e-04
 Reference value :  1.67521e-04
 Reference value :  1.67522e-04
 Reference value :  1.67525e-04
 Reference value :  1.67533e-04
 Reference value :  1.67553e-04
 Reference value :  1.67643e-04
 Reference value :  1.67750e-04
 Reference value :  1.67750e-04
 Reference value :  1.67750e-04
 Reference value :  1.67750e-04
 Reference value :  1.67751e-04
 Reference value :  1.67751e-04
 Reference value :  1.67752e-04
 Reference value :  1.67753e-04
 Reference value :  1.67753e-04
 Reference value :  1.67755e-04
 Reference value :  1.67756e-04
 Reference value :  1.67762e-04
 Reference value :  1.67787e-04
 Reference value :  1.67987e-04
 Reference value :  1.68000e-04
 Reference value :  1.68000e-04
 Reference value :  1.68000e-04
 Reference value :  1.68000e-04
 Reference value :  1.68001e-04
 Reference value :  1.68001e-04
 Reference value :  1.68002e-04
 Reference value :  1.68003e-04
 Reference value :  1.68004e-04
 Reference value :  1.68006e-04
 Reference value :  1.68006e-04
 Reference value :  1.68008e-04
 Reference value :  1.68010e-04
 Reference value :  1.68015e-04
 Reference value :  1.68047e-04
 Reference value :  1.68250e-04
 Reference value :  1.68250e-04
 Reference value :  1.68250e-04
 Reference value :  1.68251e-04
 Reference value :  1.68252e-04
 Reference value :  1.68253e-04
 Reference value :  1.68253e-04
 Reference value :  1.68254e-04
 Reference value :  1.68256e-04
 Reference value :  1.68260e-04
 Reference value :  1.68282e-04
 Reference value :  1.68455e-04
 Reference value :  1.68500e-04
 Reference value :  1.68500e-04
 Reference value :  1.68500e-04
 Reference value :  1.68500e-04
 Reference value :  1.68501e-04
 Reference value :  1.68502e-04
 Reference value :  1.68502e-04
 Reference value :  1.68503e-04
 Reference value :  1.68505e-04
 Reference value :  1.68507e-04
 Reference value :  1.68511e-04
 Reference value :  1.68513e-04
 Reference value :  1.68515e-04
 Reference value :  1.68519e-04
 Reference value :  1.68529e-04
 Reference value :  1.68609e-04
 Reference value :  1.68750e-04
 Reference value :  1.68750e-04
 Reference value :  1.68750e-04
 Reference value :  1.68751e-04
 Reference value :  1.68751e-04
 Reference value :  1.68753e-04
 Reference value :  1.68755e-04
 Reference value :  1.68757e-04
 Reference value :  1.68772e-04
 Reference value :  1.68987e-04
 Reference value :  1.69000e-04
 Reference value :  1.69000e-04
 Reference value :  1.69000e-04
 Reference value :  1.69000e-04
 Reference value :  1.69001e-04
 Reference value :  1.69002e-04
 Reference value :  1.69002e-04
 Reference value :  1.69003e-04
 Reference value :  1.69004e-04
 Reference value :  1.69006e-04
 Reference value :  1.69006e-04
 Reference value :  1.69008e-04
 Reference value :  1.69010e-04
 Reference value :  1.69020e-04
 Reference value :  1.69153e-04
 Reference value :  1.69250e-04
 Reference value :  1.69250e-04
 Reference value :  1.69251e-04
 Reference value :  1.69251e-04
 Reference value :  1.69252e-04
 Reference value :  1.69253e-04
 Reference value :  1.69254e-04
 Reference value :  1.69256e-04
 Reference value :  1.69260e-04
 Reference value :  1.69307e-04
 Reference value :  1.69500e-04
 Reference value :  1.69500e-04
 Reference value :  1.69500e-04
 Reference value :  1.69501e-04
 Reference value :  1.69501e-04
 Reference value :  1.69502e-04
 Reference value :  1.69503e-04
 Reference value :  1.69504e-04
 Reference value :  1.69505e-04
 Reference value :  1.69506e-04
 Reference value :  1.69509e-04
 Reference value :  1.69523e-04
 Reference value :  1.69733e-04
 Reference value :  1.69750e-04
 Reference value :  1.69750e-04
 Reference value :  1.69750e-04
 Reference value :  1.69750e-04
 Reference value :  1.69751e-04
 Reference value :  1.69752e-04
 Reference value :  1.69753e-04
 Reference value :  1.69755e-04
 Reference value :  1.69758e-04
 Reference value :  1.69766e-04
 Reference value :  1.69882e-04
 Reference value :  1.70000e-04
 Reference value :  1.70000e-04
 Reference value :  1.70000e-04
 Reference value :  1.70000e-04
 Reference value :  1.70000e-04
 Reference value :  1.70000e-04
 Reference value :  1.70001e-04
 Reference value :  1.70002e-04
 Reference value :  1.70002e-04
 Reference value :  1.70003e-04
 Reference value :  1.70004e-04
 Reference value :  1.70004e-04
 Reference value :  1.70006e-04
 Reference value :  1.70009e-04
 Reference value :  1.70022e-04
 Reference value :  1.70026e-04
 Reference value :  1.70029e-04
 Reference value :  1.70034e-04
 Reference value :  1.70037e-04
 Reference value :  1.70039e-04
 Reference value :  1.70045e-04
 Reference value :  1.70057e-04
 Reference value :  1.70063e-04
 Reference value :  1.70076e-04
 Reference value :  1.70088e-04
 Reference value :  1.70097e-04
 Reference value :  1.70122e-04
 Reference value :  1.70250e-04
 Reference value :  1.70250e-04
 Reference value :  1.70250e-04
 Reference value :  1.70251e-04
 Reference value :  1.70253e-04
 Reference value :  1.70254e-04
 Reference value :  1.70257e-04
 Reference value :  1.70271e-04
 Reference value :  1.70472e-04
 Reference value :  1.70500e-04
 Reference value :  1.70500e-04
 Reference value :  1.70501e-04
 Reference value :  1.70502e-04
 Reference value :  1.70503e-04
 Reference value :  1.70504e-04
 Reference value :  1.70506e-04
 Reference value :  1.70509e-04
 Reference value :  1.70511e-04
 Reference value :  1.70514e-04
 Reference value :  1.70520e-04
 Reference value :  1.70579e-04
 Reference value :  1.70750e-04
 Reference value :  1.70750e-04
 Reference value :  1.70751e-04
 Reference value :  1.70751e-04
 Reference value :  1.70753e-04
 Reference value :  1.70754e-04
 Reference value :  1.70755e-04
 Reference value :  1.70757e-04
 Reference value :  1.70760e-04
 Reference value :  1.70773e-04
 Reference value :  1.70932e-04
 Reference value :  1.71000e-04
 Reference value :  1.71000e-04
 Reference value :  1.71000e-04
 Reference value :  1.71001e-04
 Reference value :  1.71002e-04
 Reference value :  1.71003e-04
 Reference value :  1.71004e-04
 Reference value :  1.71005e-04
 Reference value :  1.71008e-04
 Reference value :  1.71010e-04
 Reference value :  1.71012e-04
 Reference value :  1.71014e-04
 Reference value :  1.71016e-04
 Reference value :  1.71025e-04
 Reference value :  1.71166e-04
 Reference value :  1.71250e-04
 Reference value :  1.71250e-04
 Reference value :  1.71250e-04
 Reference value :  1.71251e-04
 Reference value :  1.71253e-04
 Reference value :  1.71253e-04
 Reference value :  1.71255e-04
 Reference value :  1.71257e-04
 Reference value :  1.71273e-04
 Reference value :  1.71493e-04
 Reference value :  1.71500e-04
 Reference value :  1.71500e-04
 Reference value :  1.71500e-04
 Reference value :  1.71501e-04
 Reference value :  1.71502e-04
 Reference value :  1.71503e-04
 Reference value :  1.71505e-04
 Reference value :  1.71506e-04
 Reference value :  1.71507e-04
 Reference value :  1.71510e-04
 Reference value :  1.71517e-04
 Reference value :  1.71547e-04
 Reference value :  1.71750e-04
 Reference value :  1.71750e-04
 Reference value :  1.71750e-04
 Reference value :  1.71750e-04
 Reference value :  1.71751e-04
 Reference value :  1.71751e-04
 Reference value :  1.71752e-04
 Reference value :  1.71753e-04
 Reference value :  1.71754e-04
 Reference value :  1.71756e-04
 Reference value :  1.71757e-04
 Reference value :  1.71760e-04
 Reference value :  1.71775e-04
 Reference value :  1.71997e-04
 Reference value :  1.72000e-04
 Reference value :  1.72000e-04
 Reference value :  1.72001e-04
 Reference value :  1.72002e-04
 Reference value :  1.72002e-04
 Reference value :  1.72003e-04
 Reference value :  1.72004e-04
 Reference value :  1.72005e-04
 Reference value :  1.72007e-04
 Reference value :  1.72008e-04
 Reference value :  1.72010e-04
 Reference value :  1.72012e-04
 Reference value :  1.72014e-04
 Reference value :  1.72015e-04
 Reference value :  1.72017e-04
 Reference value :  1.72025e-04
 Reference value :  1.72092e-04
 Reference value :  1.72250e-04
 Reference value :  1.72250e-04
 Reference value :  1.72250e-04
 Reference value :  1.72251e-04
 Reference value :  1.72252e-04
 Reference value :  1.72253e-04
 Reference value :  1.72255e-04
 Reference value :  1.72259e-04
 Reference value :  1.72317e-04
 Reference value :  1.72500e-04
 Reference value :  1.72500e-04
 Reference value :  1.72500e-04
 Reference value :  1.72500e-04
 Reference value :  1.72501e-04
 Reference value :  1.72502e-04
 Reference value :  1.72503e-04
 Reference value :  1.72505e-04
 Reference value :  1.72506e-04
 Reference value :  1.72507e-04
 Reference value :  1.72510e-04
 Reference value :  1.72517e-04
 Reference value :  1.72642e-04
 Reference value :  1.72750e-04
 Reference value :  1.72750e-04
 Reference value :  1.72750e-04
 Reference value :  1.72751e-04
 Reference value :  1.72752e-04
 Reference value :  1.72753e-04
 Reference value :  1.72754e-04
 Reference value :  1.72756e-04
 Reference value :  1.72757e-04
 Reference value :  1.72760e-04
 Reference value :  1.72767e-04
 Reference value :  1.72819e-04
 Reference value :  1.73000e-04
 Reference value :  1.73000e-04
 Reference value :  1.73000e-04
 Reference value :  1.73000e-04
 Reference value :  1.73001e-04
 Reference value :  1.73002e-04
 Reference value :  1.73002e-04
 Reference value :  1.73003e-04
 Reference value :  1.73005e-04
 Reference value :  1.73007e-04
 Reference value :  1.73008e-04
 Reference value :  1.73010e-04
 Reference value :  1.73012e-04
 Reference value :  1.73014e-04
 Reference value :  1.73018e-04
 Reference value :  1.73031e-04
 Reference value :  1.73074e-04
 Reference value :  1.73087e-04
 Reference value :  1.73095e-04
 Reference value :  1.73112e-04
 Reference value :  1.73155e-04
 Reference value :  1.73223e-04
 Reference value :  1.73250e-04
 Reference value :  1.73250e-04
 Reference value :  1.73250e-04
 Reference value :  1.73251e-04
 Reference value :  1.73252e-04
 Reference value :  1.73253e-04
 Reference value :  1.73254e-04
 Reference value :  1.73255e-04
 Reference value :  1.73259e-04
 Reference value :  1.73315e-04
 Reference value :  1.73500e-04
 Reference value :  1.73500e-04
 Reference value :  1.73500e-04
 Reference value :  1.73501e-04
 Reference value :  1.73502e-04
 Reference value :  1.73503e-04
 Reference value :  1.73504e-04
 Reference value :  1.73506e-04
 Reference value :  1.73508e-04
 Reference value :  1.73511e-04
 Reference value :  1.73530e-04
 Reference value :  1.73750e-04
 Reference value :  1.73750e-04
 Reference value :  1.73750e-04
 Reference value :  1.73750e-04
 Reference value :  1.73751e-04
 Reference value :  1.73751e-04
 Reference value :  1.73752e-04
 Reference value :  1.73753e-04
 Reference value :  1.73754e-04
 Reference value :  1.73756e-04
 Reference value :  1.73760e-04
 Reference value :  1.73782e-04
 Reference value :  1.74000e-04
 Reference value :  1.74000e-04
 Reference value :  1.74000e-04
 Reference value :  1.74000e-04
 Reference value :  1.74001e-04
 Reference value :  1.74001e-04
 Reference value :  1.74002e-04
 Reference value :  1.74003e-04
 Reference value :  1.74004e-04
 Reference value :  1.74005e-04
 Reference value :  1.74007e-04
 Reference value :  1.74010e-04
 Reference value :  1.74011e-04
 Reference value :  1.74013e-04
 Reference value :  1.74015e-04
 Reference value :  1.74019e-04
 Reference value :  1.74036e-04
 Reference value :  1.74053e-04
 Reference value :  1.74075e-04
 Reference value :  1.74105e-04
 Reference value :  1.74250e-04
 Reference value :  1.74250e-04
 Reference value :  1.74250e-04
 Reference value :  1.74251e-04
 Reference value :  1.74252e-04
 Reference value :  1.74253e-04
 Reference value :  1.74255e-04
 Reference value :  1.74259e-04
 Reference value :  1.74313e-04
 Reference value :  1.74500e-04
 Reference value :  1.74500e-04
 Reference value :  1.74500e-04
 Reference value :  1.74501e-04
 Reference value :  1.74501e-04
 Reference value :  1.74502e-04
 Reference value :  1.74502e-04
 Reference value :  1.74503e-04
 Reference value :  1.74504e-04
 Reference value :  1.74505e-04
 Reference value :  1.74507e-04
 Reference value :  1.74510e-04
 Reference value :  1.74522e-04
 Reference value :  1.74579e-04
 Reference value :  1.74750e-04
 Reference value :  1.74750e-04
 Reference value :  1.74750e-04
 Reference value :  1.74751e-04
 Reference value :  1.74752e-04
 Reference value :  1.74753e-04
 Reference value :  1.74753e-04
 Reference value :  1.74754e-04
 Reference value :  1.74756e-04
 Reference value :  1.74758e-04
 Reference value :  1.74760e-04
 Reference value :  1.74764e-04
 Reference value :  1.74790e-04
 Reference value :  1.75000e-04
 Reference value :  1.75000e-04
 Reference value :  1.75000e-04
 Reference value :  1.75001e-04
 Reference value :  1.75002e-04
 Reference value :  1.75003e-04
 Reference value :  1.75005e-04
 Reference value :  1.75008e-04
 Reference value :  1.75010e-04
 Reference value :  1.75013e-04
 Reference value :  1.75016e-04
 Reference value :  1.75037e-04
 Reference value :  1.75055e-04
 Reference value :  1.75070e-04
 Reference value :  1.75134e-04
 Reference value :  1.75250e-04
 Reference value :  1.75250e-04
 Reference value :  1.75252e-04
 Reference value :  1.75253e-04
 Reference value :  1.75257e-04
 Reference value :  1.75315e-04
 Reference value :  1.75500e-04
 Reference value :  1.75500e-04
 Reference value :  1.75502e-04
 Reference value :  1.75503e-04
 Reference value :  1.75506e-04
 Reference value :  1.75510e-04
 Reference value :  1.75582e-04
 Reference value :  1.75750e-04
 Reference value :  1.75751e-04
 Reference value :  1.75752e-04
 Reference value :  1.75754e-04
 Reference value :  1.75756e-04
 Reference value :  1.75782e-04
 Reference value :  1.76000e-04
 Reference value :  1.76000e-04
 Reference value :  1.76002e-04
 Reference value :  1.76003e-04
 Reference value :  1.76006e-04
 Reference value :  1.76010e-04
 Reference value :  1.76013e-04
 Reference value :  1.76017e-04
 Reference value :  1.76035e-04
 Reference value :  1.76058e-04
 Reference value :  1.76178e-04
 Reference value :  1.76250e-04
 Reference value :  1.76250e-04
 Reference value :  1.76252e-04
 Reference value :  1.76253e-04
 Reference value :  1.76257e-04
 Reference value :  1.76369e-04
 Reference value :  1.76500e-04
 Reference value :  1.76501e-04
 Reference value :  1.76502e-04
 Reference value :  1.76503e-04
 Reference value :  1.76506e-04
 Reference value :  1.76508e-04
 Reference value :  1.76517e-04
 Reference value :  1.76750e-04
 Reference value :  1.76750e-04
 Reference value :  1.76751e-04
 Reference value :  1.76753e-04
 Reference value :  1.76755e-04
 Reference value :  1.76758e-04
 Reference value :  1.76790e-04
 Reference value :  1.77000e-04
 Reference value :  1.77000e-04
 Reference value :  1.77002e-04
 Reference value :  1.77003e-04
 Reference value :  1.77005e-04
 Reference value :  1.77008e-04
 Reference value :  1.77010e-04
 Reference value :  1.77013e-04
 Reference value :  1.77016e-04
 Reference value :  1.77026e-04
 Reference value :  1.77250e-04
 Reference value :  1.77250e-04
 Reference value :  1.77251e-04
 Reference value :  1.77253e-04
 Reference value :  1.77255e-04
 Reference value :  1.77273e-04
 Reference value :  1.77500e-04
 Reference value :  1.77500e-04
 Reference value :  1.77501e-04
 Reference value :  1.77503e-04
 Reference value :  1.77505e-04
 Reference value :  1.77507e-04
 Reference value :  1.77511e-04
 Reference value :  1.77579e-04
 Reference value :  1.77750e-04
 Reference value :  1.77751e-04
 Reference value :  1.77752e-04
 Reference value :  1.77754e-04
 Reference value :  1.77756e-04
 Reference value :  1.77760e-04
 Reference value :  1.77875e-04
 Reference value :  1.78000e-04
 Reference value :  1.78000e-04
 Reference value :  1.78002e-04
 Reference value :  1.78003e-04
 Reference value :  1.78005e-04
 Reference value :  1.78008e-04
 Reference value :  1.78013e-04
 Reference value :  1.78021e-04
 Reference value :  1.78128e-04
 Reference value :  1.78250e-04
 Reference value :  1.78250e-04
 Reference value :  1.78251e-04
 Reference value :  1.78252e-04
 Reference value :  1.78255e-04
 Reference value :  1.78262e-04
 Reference value :  1.78362e-04
 Reference value :  1.78436e-04
No. of Data Rows : 25960
ngspice-44 done
