
Note: Compatibility modes selected: hs a


Circuit: ** sch_path: /home/ece/cace/sar-adc-using-sky130-pdk/runs/run_2025-09-12_18-26-38/parameters/sndr/run_0/sndr_enob_fom.sch

option SCALE: Scale is set to 1e-06 for instance and model parameters
option SCALE: Scale is set to 1e-06 for instance and model parameters
option SCALE: Scale is set to 1e-06 for instance and model parameters
option SCALE: Scale is set to 1e-06 for instance and model parameters
Doing analysis at TEMP = 27.000000 and TNOM = 27.000000

Using KLU as Direct Linear Solver
Operating point simulation skipped by 'uic',
  now using transient initial conditions.
 Reference value :  1.00000e-12
 Reference value :  1.02772e-12
 Reference value :  1.08316e-12
 Reference value :  1.19404e-12
 Reference value :  1.33842e-12
 Reference value :  1.62719e-12
 Reference value :  2.20473e-12
 Reference value :  3.04051e-12
 Reference value :  3.94763e-12
 Reference value :  5.17092e-12
 Reference value :  6.92458e-12
 Reference value :  1.02659e-11
 Reference value :  1.42543e-11
 Reference value :  2.09970e-11
 Reference value :  2.78418e-11
 Reference value :  3.68668e-11
 Reference value :  4.83603e-11
 Reference value :  6.53427e-11
 Reference value :  8.71307e-11
 Reference value :  1.00000e-10
 Reference value :  1.01054e-10
 Reference value :  1.03163e-10
 Reference value :  1.07379e-10
 Reference value :  1.15813e-10
 Reference value :  1.32680e-10
 Reference value :  1.66414e-10
 Reference value :  2.33882e-10
 Reference value :  3.68818e-10
 Reference value :  5.17784e-10
 Reference value :  7.61833e-10
 Reference value :  1.07853e-09
 Reference value :  1.47985e-09
 Reference value :  2.05838e-09
 Reference value :  2.67618e-09
 Reference value :  3.65160e-09
 Reference value :  4.55546e-09
 Reference value :  5.46181e-09
 Reference value :  6.54610e-09
 Reference value :  7.57433e-09
 Reference value :  8.74284e-09
 Reference value :  9.61374e-09
 Reference value :  1.04370e-08
 Reference value :  1.13986e-08
 Reference value :  1.23403e-08
 Reference value :  1.40246e-08
 Reference value :  1.64599e-08
 Reference value :  2.07790e-08
 Reference value :  2.59379e-08
 Reference value :  3.08227e-08
 Reference value :  3.48451e-08
 Reference value :  3.92416e-08
 Reference value :  4.48704e-08
 Reference value :  5.01636e-08
 Reference value :  5.78220e-08
 Reference value :  6.81279e-08
 Reference value :  8.50800e-08
 Reference value :  1.16302e-07
 Reference value :  1.64694e-07
 Reference value :  2.48956e-07
 Reference value :  2.50100e-07
 Reference value :  2.50110e-07
 Reference value :  2.50130e-07
 Reference value :  2.50170e-07
 Reference value :  2.50200e-07
 Reference value :  2.50201e-07
 Reference value :  2.50202e-07
 Reference value :  2.50204e-07
 Reference value :  2.50208e-07
 Reference value :  2.50216e-07
 Reference value :  2.50233e-07
 Reference value :  2.50266e-07
 Reference value :  2.50332e-07
 Reference value :  2.50438e-07
 Reference value :  2.50611e-07
 Reference value :  2.50808e-07
 Reference value :  2.51136e-07
 Reference value :  2.51583e-07
 Reference value :  2.52133e-07
 Reference value :  2.52731e-07
 Reference value :  2.53379e-07
 Reference value :  2.54229e-07
 Reference value :  2.55159e-07
 Reference value :  2.56089e-07
 Reference value :  2.56989e-07
 Reference value :  2.57972e-07
 Reference value :  2.58946e-07
 Reference value :  2.60499e-07
 Reference value :  2.62419e-07
 Reference value :  2.64909e-07
 Reference value :  2.68767e-07
 Reference value :  2.73508e-07
 Reference value :  2.82991e-07
 Reference value :  3.00568e-07
 Reference value :  3.29461e-07
 Reference value :  3.86676e-07
 Reference value :  5.00000e-07
 Reference value :  5.00010e-07
 Reference value :  5.00030e-07
 Reference value :  5.00070e-07
 Reference value :  5.00100e-07
 Reference value :  5.00104e-07
 Reference value :  5.00113e-07
 Reference value :  5.00130e-07
 Reference value :  5.00165e-07
 Reference value :  5.00234e-07
 Reference value :  5.00372e-07
 Reference value :  5.00573e-07
 Reference value :  5.00954e-07
 Reference value :  5.01538e-07
 Reference value :  5.02096e-07
 Reference value :  5.02766e-07
 Reference value :  5.03533e-07
 Reference value :  5.04331e-07
 Reference value :  5.05155e-07
 Reference value :  5.05969e-07
 Reference value :  5.07062e-07
 Reference value :  5.08130e-07
 Reference value :  5.09940e-07
 Reference value :  5.12181e-07
 Reference value :  5.14397e-07
 Reference value :  5.16701e-07
 Reference value :  5.18870e-07
 Reference value :  5.21551e-07
 Reference value :  5.24224e-07
 Reference value :  5.29329e-07
 Reference value :  5.35742e-07
 Reference value :  5.46810e-07
 Reference value :  5.66366e-07
 Reference value :  5.96608e-07
 Reference value :  6.57093e-07
 Reference value :  7.50100e-07
 Reference value :  7.50110e-07
 Reference value :  7.50130e-07
 Reference value :  7.50170e-07
 Reference value :  7.50200e-07
 Reference value :  7.50201e-07
 Reference value :  7.50202e-07
 Reference value :  7.50205e-07
 Reference value :  7.50211e-07
 Reference value :  7.50223e-07
 Reference value :  7.50247e-07
 Reference value :  7.50295e-07
 Reference value :  7.50390e-07
 Reference value :  7.50581e-07
 Reference value :  7.50959e-07
 Reference value :  7.51572e-07
 Reference value :  7.52191e-07
 Reference value :  7.52840e-07
 Reference value :  7.53541e-07
 Reference value :  7.54448e-07
 Reference value :  7.55180e-07
 Reference value :  7.56013e-07
 Reference value :  7.56742e-07
 Reference value :  7.57547e-07
 Reference value :  7.58563e-07
 Reference value :  7.59653e-07
 Reference value :  7.61835e-07
 Reference value :  7.64160e-07
 Reference value :  7.68223e-07
 Reference value :  7.72598e-07
 Reference value :  7.81348e-07
 Reference value :  7.98847e-07
 Reference value :  8.31746e-07
 Reference value :  8.97545e-07
 Reference value :  1.00000e-06
 Reference value :  1.00001e-06
 Reference value :  1.00003e-06
 Reference value :  1.00007e-06
 Reference value :  1.00010e-06
 Reference value :  1.00010e-06
 Reference value :  1.00011e-06
 Reference value :  1.00013e-06
 Reference value :  1.00016e-06
 Reference value :  1.00023e-06
 Reference value :  1.00037e-06
 Reference value :  1.00057e-06
 Reference value :  1.00095e-06
 Reference value :  1.00154e-06
 Reference value :  1.00209e-06
 Reference value :  1.00276e-06
 Reference value :  1.00353e-06
 Reference value :  1.00440e-06
 Reference value :  1.00519e-06
 Reference value :  1.00606e-06
 Reference value :  1.00684e-06
 Reference value :  1.00759e-06
 Reference value :  1.00846e-06
 Reference value :  1.00938e-06
 Reference value :  1.01056e-06
 Reference value :  1.01241e-06
 Reference value :  1.01476e-06
 Reference value :  1.01829e-06
 Reference value :  1.02070e-06
 Reference value :  1.02282e-06
 Reference value :  1.02485e-06
 Reference value :  1.02663e-06
 Reference value :  1.02849e-06
 Reference value :  1.03079e-06
 Reference value :  1.03330e-06
 Reference value :  1.03634e-06
 Reference value :  1.04062e-06
 Reference value :  1.04637e-06
 Reference value :  1.05499e-06
 Reference value :  1.06787e-06
 Reference value :  1.08748e-06
 Reference value :  1.11813e-06
 Reference value :  1.16564e-06
 Reference value :  1.23668e-06
 Reference value :  1.25010e-06
 Reference value :  1.25011e-06
 Reference value :  1.25013e-06
 Reference value :  1.25017e-06
 Reference value :  1.25020e-06
 Reference value :  1.25020e-06
 Reference value :  1.25020e-06
 Reference value :  1.25021e-06
 Reference value :  1.25021e-06
 Reference value :  1.25022e-06
 Reference value :  1.25025e-06
 Reference value :  1.25029e-06
 Reference value :  1.25039e-06
 Reference value :  1.25057e-06
 Reference value :  1.25090e-06
 Reference value :  1.25154e-06
 Reference value :  1.25213e-06
 Reference value :  1.25276e-06
 Reference value :  1.25347e-06
 Reference value :  1.25438e-06
 Reference value :  1.25516e-06
 Reference value :  1.25603e-06
 Reference value :  1.25690e-06
 Reference value :  1.25782e-06
 Reference value :  1.25903e-06
 Reference value :  1.26096e-06
 Reference value :  1.26333e-06
 Reference value :  1.26658e-06
 Reference value :  1.27087e-06
 Reference value :  1.27831e-06
 Reference value :  1.29319e-06
 Reference value :  1.32115e-06
 Reference value :  1.37707e-06
 Reference value :  1.48891e-06
 Reference value :  1.50000e-06
 Reference value :  1.50001e-06
 Reference value :  1.50003e-06
 Reference value :  1.50007e-06
 Reference value :  1.50010e-06
 Reference value :  1.50010e-06
 Reference value :  1.50011e-06
 Reference value :  1.50013e-06
 Reference value :  1.50016e-06
 Reference value :  1.50023e-06
 Reference value :  1.50037e-06
 Reference value :  1.50057e-06
 Reference value :  1.50093e-06
 Reference value :  1.50143e-06
 Reference value :  1.50196e-06
 Reference value :  1.50261e-06
 Reference value :  1.50337e-06
 Reference value :  1.50412e-06
 Reference value :  1.50495e-06
 Reference value :  1.50594e-06
 Reference value :  1.50686e-06
 Reference value :  1.50810e-06
 Reference value :  1.50927e-06
 Reference value :  1.51070e-06
 Reference value :  1.51200e-06
 Reference value :  1.51365e-06
 Reference value :  1.51501e-06
 Reference value :  1.51660e-06
 Reference value :  1.51815e-06
 Reference value :  1.51993e-06
 Reference value :  1.52349e-06
 Reference value :  1.52964e-06
 Reference value :  1.53960e-06
 Reference value :  1.55952e-06
 Reference value :  1.59936e-06
 Reference value :  1.67903e-06
 Reference value :  1.75010e-06
 Reference value :  1.75011e-06
 Reference value :  1.75013e-06
 Reference value :  1.75017e-06
 Reference value :  1.75020e-06
 Reference value :  1.75020e-06
 Reference value :  1.75020e-06
 Reference value :  1.75021e-06
 Reference value :  1.75021e-06
 Reference value :  1.75022e-06
 Reference value :  1.75025e-06
 Reference value :  1.75029e-06
 Reference value :  1.75039e-06
 Reference value :  1.75057e-06
 Reference value :  1.75090e-06
 Reference value :  1.75156e-06
 Reference value :  1.75215e-06
 Reference value :  1.75278e-06
 Reference value :  1.75348e-06
 Reference value :  1.75440e-06
 Reference value :  1.75514e-06
 Reference value :  1.75598e-06
 Reference value :  1.75671e-06
 Reference value :  1.75752e-06
 Reference value :  1.75855e-06
 Reference value :  1.75965e-06
 Reference value :  1.76185e-06
 Reference value :  1.76416e-06
 Reference value :  1.76824e-06
 Reference value :  1.77261e-06
 Reference value :  1.78136e-06
 Reference value :  1.79884e-06
 Reference value :  1.83319e-06
 Reference value :  1.90189e-06
 Reference value :  2.00000e-06
 Reference value :  2.00001e-06
 Reference value :  2.00003e-06
 Reference value :  2.00007e-06
 Reference value :  2.00010e-06
 Reference value :  2.00010e-06
 Reference value :  2.00011e-06
 Reference value :  2.00013e-06
 Reference value :  2.00016e-06
 Reference value :  2.00023e-06
 Reference value :  2.00037e-06
 Reference value :  2.00057e-06
 Reference value :  2.00093e-06
 Reference value :  2.00143e-06
 Reference value :  2.00196e-06
 Reference value :  2.00260e-06
 Reference value :  2.00337e-06
 Reference value :  2.00412e-06
 Reference value :  2.00497e-06
 Reference value :  2.00572e-06
 Reference value :  2.00654e-06
 Reference value :  2.00756e-06
 Reference value :  2.00853e-06
 Reference value :  2.00954e-06
 Reference value :  2.01097e-06
 Reference value :  2.01251e-06
 Reference value :  2.01510e-06
 Reference value :  2.01830e-06
 Reference value :  2.02061e-06
 Reference value :  2.02270e-06
 Reference value :  2.02475e-06
 Reference value :  2.02668e-06
 Reference value :  2.02852e-06
 Reference value :  2.03088e-06
 Reference value :  2.03313e-06
 Reference value :  2.03616e-06
 Reference value :  2.03983e-06
 Reference value :  2.04495e-06
 Reference value :  2.05238e-06
 Reference value :  2.06318e-06
 Reference value :  2.07984e-06
 Reference value :  2.10524e-06
 Reference value :  2.14485e-06
 Reference value :  2.20696e-06
 Reference value :  2.25010e-06
 Reference value :  2.25011e-06
 Reference value :  2.25013e-06
 Reference value :  2.25017e-06
 Reference value :  2.25020e-06
 Reference value :  2.25020e-06
 Reference value :  2.25020e-06
 Reference value :  2.25021e-06
 Reference value :  2.25021e-06
 Reference value :  2.25022e-06
 Reference value :  2.25025e-06
 Reference value :  2.25029e-06
 Reference value :  2.25039e-06
 Reference value :  2.25057e-06
 Reference value :  2.25090e-06
 Reference value :  2.25156e-06
 Reference value :  2.25215e-06
 Reference value :  2.25279e-06
 Reference value :  2.25349e-06
 Reference value :  2.25440e-06
 Reference value :  2.25516e-06
 Reference value :  2.25601e-06
 Reference value :  2.25687e-06
 Reference value :  2.25778e-06
 Reference value :  2.25898e-06
 Reference value :  2.26085e-06
 Reference value :  2.26326e-06
 Reference value :  2.26642e-06
 Reference value :  2.27071e-06
 Reference value :  2.27772e-06
 Reference value :  2.29174e-06
 Reference value :  2.31866e-06
 Reference value :  2.37252e-06
 Reference value :  2.47390e-06
 Reference value :  2.50000e-06
 Reference value :  2.50001e-06
 Reference value :  2.50003e-06
 Reference value :  2.50007e-06
 Reference value :  2.50010e-06
 Reference value :  2.50010e-06
 Reference value :  2.50011e-06
 Reference value :  2.50013e-06
 Reference value :  2.50016e-06
 Reference value :  2.50023e-06
 Reference value :  2.50037e-06
 Reference value :  2.50057e-06
 Reference value :  2.50093e-06
 Reference value :  2.50143e-06
 Reference value :  2.50196e-06
 Reference value :  2.50260e-06
 Reference value :  2.50337e-06
 Reference value :  2.50412e-06
 Reference value :  2.50495e-06
 Reference value :  2.50594e-06
 Reference value :  2.50685e-06
 Reference value :  2.50810e-06
 Reference value :  2.50926e-06
 Reference value :  2.51069e-06
 Reference value :  2.51199e-06
 Reference value :  2.51362e-06
 Reference value :  2.51497e-06
 Reference value :  2.51655e-06
 Reference value :  2.51808e-06
 Reference value :  2.51985e-06
 Reference value :  2.52341e-06
 Reference value :  2.52920e-06
 Reference value :  2.53980e-06
 Reference value :  2.56091e-06
 Reference value :  2.60314e-06
 Reference value :  2.68759e-06
 Reference value :  2.75010e-06
 Reference value :  2.75011e-06
 Reference value :  2.75013e-06
 Reference value :  2.75017e-06
 Reference value :  2.75020e-06
 Reference value :  2.75020e-06
 Reference value :  2.75020e-06
 Reference value :  2.75021e-06
 Reference value :  2.75021e-06
 Reference value :  2.75022e-06
 Reference value :  2.75025e-06
 Reference value :  2.75029e-06
 Reference value :  2.75039e-06
 Reference value :  2.75057e-06
 Reference value :  2.75090e-06
 Reference value :  2.75156e-06
 Reference value :  2.75215e-06
 Reference value :  2.75279e-06
 Reference value :  2.75349e-06
 Reference value :  2.75440e-06
 Reference value :  2.75514e-06
 Reference value :  2.75598e-06
 Reference value :  2.75670e-06
 Reference value :  2.75751e-06
 Reference value :  2.75854e-06
 Reference value :  2.75964e-06
 Reference value :  2.76185e-06
 Reference value :  2.76417e-06
 Reference value :  2.76825e-06
 Reference value :  2.77262e-06
 Reference value :  2.78136e-06
 Reference value :  2.79884e-06
 Reference value :  2.83380e-06
 Reference value :  2.90373e-06
 Reference value :  3.00000e-06
 Reference value :  3.00001e-06
 Reference value :  3.00003e-06
 Reference value :  3.00007e-06
 Reference value :  3.00010e-06
 Reference value :  3.00010e-06
 Reference value :  3.00011e-06
 Reference value :  3.00013e-06
 Reference value :  3.00016e-06
 Reference value :  3.00023e-06
 Reference value :  3.00037e-06
 Reference value :  3.00057e-06
 Reference value :  3.00093e-06
 Reference value :  3.00143e-06
 Reference value :  3.00196e-06
 Reference value :  3.00260e-06
 Reference value :  3.00337e-06
 Reference value :  3.00412e-06
 Reference value :  3.00497e-06
 Reference value :  3.00575e-06
 Reference value :  3.00655e-06
 Reference value :  3.00763e-06
 Reference value :  3.00863e-06
 Reference value :  3.00964e-06
 Reference value :  3.01107e-06
 Reference value :  3.01274e-06
 Reference value :  3.01546e-06
 Reference value :  3.01836e-06
 Reference value :  3.02065e-06
 Reference value :  3.02252e-06
 Reference value :  3.02430e-06
 Reference value :  3.02589e-06
 Reference value :  3.02761e-06
 Reference value :  3.02964e-06
 Reference value :  3.03162e-06
 Reference value :  3.03453e-06
 Reference value :  3.03782e-06
 Reference value :  3.04339e-06
 Reference value :  3.05151e-06
 Reference value :  3.06040e-06
 Reference value :  3.06929e-06
 Reference value :  3.07989e-06
 Reference value :  3.08706e-06
 Reference value :  3.09414e-06
 Reference value :  3.10282e-06
 Reference value :  3.11117e-06
 Reference value :  3.11985e-06
 Reference value :  3.12913e-06
 Reference value :  3.13836e-06
 Reference value :  3.15493e-06
 Reference value :  3.17501e-06
 Reference value :  3.20474e-06
 Reference value :  3.24098e-06
 Reference value :  3.25010e-06
 Reference value :  3.25011e-06
 Reference value :  3.25013e-06
 Reference value :  3.25017e-06
 Reference value :  3.25020e-06
 Reference value :  3.25020e-06
 Reference value :  3.25020e-06
 Reference value :  3.25021e-06
 Reference value :  3.25021e-06
 Reference value :  3.25022e-06
 Reference value :  3.25025e-06
 Reference value :  3.25029e-06
 Reference value :  3.25039e-06
 Reference value :  3.25058e-06
 Reference value :  3.25091e-06
 Reference value :  3.25157e-06
 Reference value :  3.25218e-06
 Reference value :  3.25282e-06
 Reference value :  3.25352e-06
 Reference value :  3.25442e-06
 Reference value :  3.25512e-06
 Reference value :  3.25592e-06
 Reference value :  3.25677e-06
 Reference value :  3.25765e-06
 Reference value :  3.25881e-06
 Reference value :  3.26071e-06
 Reference value :  3.26320e-06
 Reference value :  3.26619e-06
 Reference value :  3.27053e-06
 Reference value :  3.27696e-06
 Reference value :  3.28982e-06
 Reference value :  3.31112e-06
 Reference value :  3.33733e-06
 Reference value :  3.36366e-06
 Reference value :  3.38984e-06
 Reference value :  3.40825e-06
 Reference value :  3.42525e-06
 Reference value :  3.44388e-06
 Reference value :  3.46583e-06
 Reference value :  3.49515e-06
 Reference value :  3.50000e-06
 Reference value :  3.50001e-06
 Reference value :  3.50003e-06
 Reference value :  3.50007e-06
 Reference value :  3.50010e-06
 Reference value :  3.50010e-06
 Reference value :  3.50011e-06
 Reference value :  3.50013e-06
 Reference value :  3.50016e-06
 Reference value :  3.50023e-06
 Reference value :  3.50037e-06
 Reference value :  3.50057e-06
 Reference value :  3.50093e-06
 Reference value :  3.50143e-06
 Reference value :  3.50196e-06
 Reference value :  3.50260e-06
 Reference value :  3.50337e-06
 Reference value :  3.50412e-06
 Reference value :  3.50493e-06
 Reference value :  3.50582e-06
 Reference value :  3.50675e-06
 Reference value :  3.50784e-06
 Reference value :  3.50919e-06
 Reference value :  3.51039e-06
 Reference value :  3.51166e-06
 Reference value :  3.51348e-06
 Reference value :  3.51496e-06
 Reference value :  3.51657e-06
 Reference value :  3.51815e-06
 Reference value :  3.52001e-06
 Reference value :  3.52351e-06
 Reference value :  3.52855e-06
 Reference value :  3.53862e-06
 Reference value :  3.55877e-06
 Reference value :  3.59861e-06
 Reference value :  3.67828e-06
 Reference value :  3.75010e-06
 Reference value :  3.75011e-06
 Reference value :  3.75013e-06
 Reference value :  3.75017e-06
 Reference value :  3.75020e-06
 Reference value :  3.75020e-06
 Reference value :  3.75020e-06
 Reference value :  3.75021e-06
 Reference value :  3.75021e-06
 Reference value :  3.75022e-06
 Reference value :  3.75025e-06
 Reference value :  3.75029e-06
 Reference value :  3.75039e-06
 Reference value :  3.75057e-06
 Reference value :  3.75090e-06
 Reference value :  3.75156e-06
 Reference value :  3.75215e-06
 Reference value :  3.75279e-06
 Reference value :  3.75349e-06
 Reference value :  3.75440e-06
 Reference value :  3.75514e-06
 Reference value :  3.75598e-06
 Reference value :  3.75670e-06
 Reference value :  3.75750e-06
 Reference value :  3.75853e-06
 Reference value :  3.75963e-06
 Reference value :  3.76183e-06
 Reference value :  3.76414e-06
 Reference value :  3.76821e-06
 Reference value :  3.77257e-06
 Reference value :  3.78128e-06
 Reference value :  3.79871e-06
 Reference value :  3.83356e-06
 Reference value :  3.90327e-06
 Reference value :  4.00000e-06
 Reference value :  4.00001e-06
 Reference value :  4.00003e-06
 Reference value :  4.00007e-06
 Reference value :  4.00010e-06
 Reference value :  4.00010e-06
 Reference value :  4.00011e-06
 Reference value :  4.00013e-06
 Reference value :  4.00016e-06
 Reference value :  4.00023e-06
 Reference value :  4.00037e-06
 Reference value :  4.00057e-06
 Reference value :  4.00093e-06
 Reference value :  4.00143e-06
 Reference value :  4.00196e-06
 Reference value :  4.00260e-06
 Reference value :  4.00337e-06
 Reference value :  4.00412e-06
 Reference value :  4.00497e-06
 Reference value :  4.00572e-06
 Reference value :  4.00654e-06
 Reference value :  4.00744e-06
 Reference value :  4.00837e-06
 Reference value :  4.00934e-06
 Reference value :  4.01064e-06
 Reference value :  4.01218e-06
 Reference value :  4.01457e-06
 Reference value :  4.01792e-06
 Reference value :  4.02026e-06
 Reference value :  4.02228e-06
 Reference value :  4.02419e-06
 Reference value :  4.02612e-06
 Reference value :  4.02795e-06
 Reference value :  4.03024e-06
 Reference value :  4.03235e-06
 Reference value :  4.03534e-06
 Reference value :  4.03873e-06
 Reference value :  4.04319e-06
 Reference value :  4.04789e-06
 Reference value :  4.05192e-06
 Reference value :  4.05513e-06
 Reference value :  4.05866e-06
 Reference value :  4.06250e-06
 Reference value :  4.06662e-06
 Reference value :  4.07288e-06
 Reference value :  4.08071e-06
 Reference value :  4.08946e-06
 Reference value :  4.09749e-06
 Reference value :  4.10674e-06
 Reference value :  4.12428e-06
 Reference value :  4.14417e-06
 Reference value :  4.17096e-06
 Reference value :  4.20420e-06
 Reference value :  4.25010e-06
 Reference value :  4.25011e-06
 Reference value :  4.25013e-06
 Reference value :  4.25017e-06
 Reference value :  4.25020e-06
 Reference value :  4.25020e-06
 Reference value :  4.25020e-06
 Reference value :  4.25021e-06
 Reference value :  4.25021e-06
 Reference value :  4.25022e-06
 Reference value :  4.25025e-06
 Reference value :  4.25029e-06
 Reference value :  4.25039e-06
 Reference value :  4.25058e-06
 Reference value :  4.25091e-06
 Reference value :  4.25157e-06
 Reference value :  4.25218e-06
 Reference value :  4.25282e-06
 Reference value :  4.25352e-06
 Reference value :  4.25442e-06
 Reference value :  4.25512e-06
 Reference value :  4.25592e-06
 Reference value :  4.25677e-06
 Reference value :  4.25766e-06
 Reference value :  4.25881e-06
 Reference value :  4.26073e-06
 Reference value :  4.26320e-06
 Reference value :  4.26622e-06
 Reference value :  4.27055e-06
 Reference value :  4.27691e-06
 Reference value :  4.28963e-06
 Reference value :  4.31507e-06
 Reference value :  4.36596e-06
 Reference value :  4.46772e-06
 Reference value :  4.50000e-06
 Reference value :  4.50001e-06
 Reference value :  4.50003e-06
 Reference value :  4.50007e-06
 Reference value :  4.50010e-06
 Reference value :  4.50010e-06
 Reference value :  4.50011e-06
 Reference value :  4.50013e-06
 Reference value :  4.50016e-06
 Reference value :  4.50023e-06
 Reference value :  4.50037e-06
 Reference value :  4.50057e-06
 Reference value :  4.50093e-06
 Reference value :  4.50143e-06
 Reference value :  4.50196e-06
 Reference value :  4.50256e-06
 Reference value :  4.50327e-06
 Reference value :  4.50402e-06
 Reference value :  4.50494e-06
 Reference value :  4.50583e-06
 Reference value :  4.50683e-06
 Reference value :  4.50798e-06
 Reference value :  4.50916e-06
 Reference value :  4.51038e-06
 Reference value :  4.51164e-06
 Reference value :  4.51326e-06
 Reference value :  4.51469e-06
 Reference value :  4.51622e-06
 Reference value :  4.51787e-06
 Reference value :  4.51974e-06
 Reference value :  4.52317e-06
 Reference value :  4.52820e-06
 Reference value :  4.53818e-06
 Reference value :  4.55722e-06
 Reference value :  4.59390e-06
 Reference value :  4.66726e-06
 Reference value :  4.75010e-06
 Reference value :  4.75011e-06
 Reference value :  4.75013e-06
 Reference value :  4.75017e-06
 Reference value :  4.75020e-06
 Reference value :  4.75020e-06
 Reference value :  4.75020e-06
 Reference value :  4.75021e-06
 Reference value :  4.75021e-06
 Reference value :  4.75022e-06
 Reference value :  4.75025e-06
 Reference value :  4.75029e-06
 Reference value :  4.75039e-06
 Reference value :  4.75057e-06
 Reference value :  4.75090e-06
 Reference value :  4.75155e-06
 Reference value :  4.75215e-06
 Reference value :  4.75278e-06
 Reference value :  4.75348e-06
 Reference value :  4.75440e-06
 Reference value :  4.75514e-06
 Reference value :  4.75598e-06
 Reference value :  4.75671e-06
 Reference value :  4.75751e-06
 Reference value :  4.75855e-06
 Reference value :  4.75965e-06
 Reference value :  4.76079e-06
 Reference value :  4.76247e-06
 Reference value :  4.76455e-06
 Reference value :  4.76718e-06
 Reference value :  4.77077e-06
 Reference value :  4.77530e-06
 Reference value :  4.78436e-06
 Reference value :  4.79844e-06
 Reference value :  4.82660e-06
 Reference value :  4.88291e-06
 Reference value :  4.99554e-06
 Reference value :  5.00000e-06
 Reference value :  5.00001e-06
 Reference value :  5.00003e-06
 Reference value :  5.00007e-06
 Reference value :  5.00010e-06
 Reference value :  5.00010e-06
 Reference value :  5.00011e-06
 Reference value :  5.00013e-06
 Reference value :  5.00017e-06
 Reference value :  5.00023e-06
 Reference value :  5.00037e-06
 Reference value :  5.00057e-06
 Reference value :  5.00093e-06
 Reference value :  5.00145e-06
 Reference value :  5.00197e-06
 Reference value :  5.00261e-06
 Reference value :  5.00338e-06
 Reference value :  5.00414e-06
 Reference value :  5.00497e-06
 Reference value :  5.00569e-06
 Reference value :  5.00648e-06
 Reference value :  5.00720e-06
 Reference value :  5.00804e-06
 Reference value :  5.00891e-06
 Reference value :  5.00998e-06
 Reference value :  5.01133e-06
 Reference value :  5.01335e-06
 Reference value :  5.01471e-06
 Reference value :  5.01622e-06
 Reference value :  5.01789e-06
 Reference value :  5.01960e-06
 Reference value :  5.02136e-06
 Reference value :  5.02297e-06
 Reference value :  5.02462e-06
 Reference value :  5.02603e-06
 Reference value :  5.02754e-06
 Reference value :  5.02936e-06
 Reference value :  5.03149e-06
 Reference value :  5.03415e-06
 Reference value :  5.03773e-06
 Reference value :  5.04377e-06
 Reference value :  5.05262e-06
 Reference value :  5.06211e-06
 Reference value :  5.07043e-06
 Reference value :  5.07948e-06
 Reference value :  5.08664e-06
 Reference value :  5.09325e-06
 Reference value :  5.09995e-06
 Reference value :  5.10647e-06
 Reference value :  5.11321e-06
 Reference value :  5.12122e-06
 Reference value :  5.12853e-06
 Reference value :  5.13560e-06
 Reference value :  5.14288e-06
 Reference value :  5.15093e-06
 Reference value :  5.15950e-06
 Reference value :  5.16849e-06
 Reference value :  5.17661e-06
 Reference value :  5.18679e-06
 Reference value :  5.20463e-06
 Reference value :  5.23284e-06
 Reference value :  5.25010e-06
 Reference value :  5.25011e-06
 Reference value :  5.25013e-06
 Reference value :  5.25017e-06
 Reference value :  5.25020e-06
 Reference value :  5.25020e-06
 Reference value :  5.25020e-06
 Reference value :  5.25021e-06
 Reference value :  5.25021e-06
 Reference value :  5.25022e-06
 Reference value :  5.25025e-06
 Reference value :  5.25029e-06
 Reference value :  5.25039e-06
 Reference value :  5.25058e-06
 Reference value :  5.25091e-06
 Reference value :  5.25157e-06
 Reference value :  5.25218e-06
 Reference value :  5.25282e-06
 Reference value :  5.25353e-06
 Reference value :  5.25443e-06
 Reference value :  5.25513e-06
 Reference value :  5.25593e-06
 Reference value :  5.25680e-06
 Reference value :  5.25768e-06
 Reference value :  5.25883e-06
 Reference value :  5.26078e-06
 Reference value :  5.26321e-06
 Reference value :  5.26627e-06
 Reference value :  5.27056e-06
 Reference value :  5.27719e-06
 Reference value :  5.29046e-06
 Reference value :  5.31698e-06
 Reference value :  5.37003e-06
 Reference value :  5.45560e-06
 Reference value :  5.50000e-06
 Reference value :  5.50001e-06
 Reference value :  5.50003e-06
 Reference value :  5.50007e-06
 Reference value :  5.50010e-06
 Reference value :  5.50010e-06
 Reference value :  5.50011e-06
 Reference value :  5.50013e-06
 Reference value :  5.50016e-06
 Reference value :  5.50023e-06
 Reference value :  5.50037e-06
 Reference value :  5.50057e-06
 Reference value :  5.50093e-06
 Reference value :  5.50143e-06
 Reference value :  5.50196e-06
 Reference value :  5.50256e-06
 Reference value :  5.50328e-06
 Reference value :  5.50403e-06
 Reference value :  5.50495e-06
 Reference value :  5.50586e-06
 Reference value :  5.50685e-06
 Reference value :  5.50811e-06
 Reference value :  5.50926e-06
 Reference value :  5.51067e-06
 Reference value :  5.51201e-06
 Reference value :  5.51360e-06
 Reference value :  5.51529e-06
 Reference value :  5.51707e-06
 Reference value :  5.51916e-06
 Reference value :  5.52270e-06
 Reference value :  5.52786e-06
 Reference value :  5.53729e-06
 Reference value :  5.55458e-06
 Reference value :  5.58577e-06
 Reference value :  5.64678e-06
 Reference value :  5.75010e-06
 Reference value :  5.75011e-06
 Reference value :  5.75013e-06
 Reference value :  5.75017e-06
 Reference value :  5.75020e-06
 Reference value :  5.75020e-06
 Reference value :  5.75020e-06
 Reference value :  5.75021e-06
 Reference value :  5.75021e-06
 Reference value :  5.75022e-06
 Reference value :  5.75025e-06
 Reference value :  5.75029e-06
 Reference value :  5.75039e-06
 Reference value :  5.75058e-06
 Reference value :  5.75091e-06
 Reference value :  5.75158e-06
 Reference value :  5.75218e-06
 Reference value :  5.75283e-06
 Reference value :  5.75353e-06
 Reference value :  5.75443e-06
 Reference value :  5.75514e-06
 Reference value :  5.75596e-06
 Reference value :  5.75667e-06
 Reference value :  5.75746e-06
 Reference value :  5.75848e-06
 Reference value :  5.75957e-06
 Reference value :  5.76065e-06
 Reference value :  5.76240e-06
 Reference value :  5.76421e-06
 Reference value :  5.76707e-06
 Reference value :  5.77033e-06
 Reference value :  5.77497e-06
 Reference value :  5.78395e-06
 Reference value :  5.79565e-06
 Reference value :  5.81839e-06
 Reference value :  5.86177e-06
 Reference value :  5.94512e-06
 Reference value :  6.00000e-06
 Reference value :  6.00001e-06
 Reference value :  6.00003e-06
 Reference value :  6.00007e-06
 Reference value :  6.00010e-06
 Reference value :  6.00010e-06
 Reference value :  6.00011e-06
 Reference value :  6.00013e-06
 Reference value :  6.00017e-06
 Reference value :  6.00023e-06
 Reference value :  6.00037e-06
 Reference value :  6.00057e-06
 Reference value :  6.00093e-06
 Reference value :  6.00145e-06
 Reference value :  6.00198e-06
 Reference value :  6.00262e-06
 Reference value :  6.00338e-06
 Reference value :  6.00415e-06
 Reference value :  6.00498e-06
 Reference value :  6.00571e-06
 Reference value :  6.00649e-06
 Reference value :  6.00722e-06
 Reference value :  6.00805e-06
 Reference value :  6.00896e-06
 Reference value :  6.01001e-06
 Reference value :  6.01161e-06
 Reference value :  6.01350e-06
 Reference value :  6.01491e-06
 Reference value :  6.01643e-06
 Reference value :  6.01805e-06
 Reference value :  6.01995e-06
 Reference value :  6.02176e-06
 Reference value :  6.02324e-06
 Reference value :  6.02483e-06
 Reference value :  6.02616e-06
 Reference value :  6.02762e-06
 Reference value :  6.02937e-06
 Reference value :  6.03147e-06
 Reference value :  6.03413e-06
 Reference value :  6.03773e-06
 Reference value :  6.04424e-06
 Reference value :  6.04828e-06
 Reference value :  6.05326e-06
 Reference value :  6.05849e-06
 Reference value :  6.06727e-06
 Reference value :  6.07629e-06
 Reference value :  6.08318e-06
 Reference value :  6.09074e-06
 Reference value :  6.09868e-06
 Reference value :  6.10734e-06
 Reference value :  6.12467e-06
 Reference value :  6.14112e-06
 Reference value :  6.16526e-06
 Reference value :  6.18016e-06
 Reference value :  6.19641e-06
 Reference value :  6.21987e-06
 Reference value :  6.25010e-06
 Reference value :  6.25011e-06
 Reference value :  6.25013e-06
 Reference value :  6.25017e-06
 Reference value :  6.25020e-06
 Reference value :  6.25020e-06
 Reference value :  6.25020e-06
 Reference value :  6.25021e-06
 Reference value :  6.25021e-06
 Reference value :  6.25022e-06
 Reference value :  6.25025e-06
 Reference value :  6.25029e-06
 Reference value :  6.25039e-06
 Reference value :  6.25057e-06
 Reference value :  6.25090e-06
 Reference value :  6.25156e-06
 Reference value :  6.25216e-06
 Reference value :  6.25279e-06
 Reference value :  6.25350e-06
 Reference value :  6.25441e-06
 Reference value :  6.25512e-06
 Reference value :  6.25594e-06
 Reference value :  6.25679e-06
 Reference value :  6.25768e-06
 Reference value :  6.25885e-06
 Reference value :  6.26076e-06
 Reference value :  6.26321e-06
 Reference value :  6.26625e-06
 Reference value :  6.27056e-06
 Reference value :  6.27716e-06
 Reference value :  6.29036e-06
 Reference value :  6.31675e-06
 Reference value :  6.36954e-06
 Reference value :  6.46773e-06
 Reference value :  6.50000e-06
 Reference value :  6.50001e-06
 Reference value :  6.50003e-06
 Reference value :  6.50007e-06
 Reference value :  6.50010e-06
 Reference value :  6.50010e-06
 Reference value :  6.50011e-06
 Reference value :  6.50013e-06
 Reference value :  6.50016e-06
 Reference value :  6.50023e-06
 Reference value :  6.50037e-06
 Reference value :  6.50057e-06
 Reference value :  6.50093e-06
 Reference value :  6.50144e-06
 Reference value :  6.50196e-06
 Reference value :  6.50256e-06
 Reference value :  6.50328e-06
 Reference value :  6.50403e-06
 Reference value :  6.50495e-06
 Reference value :  6.50585e-06
 Reference value :  6.50684e-06
 Reference value :  6.50798e-06
 Reference value :  6.50929e-06
 Reference value :  6.51052e-06
 Reference value :  6.51179e-06
 Reference value :  6.51355e-06
 Reference value :  6.51521e-06
 Reference value :  6.51685e-06
 Reference value :  6.51888e-06
 Reference value :  6.52110e-06
 Reference value :  6.52481e-06
 Reference value :  6.53025e-06
 Reference value :  6.53968e-06
 Reference value :  6.55667e-06
 Reference value :  6.58660e-06
 Reference value :  6.64302e-06
 Reference value :  6.74621e-06
 Reference value :  6.75010e-06
 Reference value :  6.75011e-06
 Reference value :  6.75013e-06
 Reference value :  6.75017e-06
 Reference value :  6.75020e-06
 Reference value :  6.75020e-06
 Reference value :  6.75020e-06
 Reference value :  6.75021e-06
 Reference value :  6.75021e-06
 Reference value :  6.75022e-06
 Reference value :  6.75025e-06
 Reference value :  6.75029e-06
 Reference value :  6.75039e-06
 Reference value :  6.75058e-06
 Reference value :  6.75091e-06
 Reference value :  6.75158e-06
 Reference value :  6.75219e-06
 Reference value :  6.75283e-06
 Reference value :  6.75353e-06
 Reference value :  6.75443e-06
 Reference value :  6.75514e-06
 Reference value :  6.75596e-06
 Reference value :  6.75667e-06
 Reference value :  6.75746e-06
 Reference value :  6.75848e-06
 Reference value :  6.75957e-06
 Reference value :  6.76064e-06
 Reference value :  6.76240e-06
 Reference value :  6.76418e-06
 Reference value :  6.76707e-06
 Reference value :  6.77030e-06
 Reference value :  6.77496e-06
 Reference value :  6.78375e-06
 Reference value :  6.79523e-06
 Reference value :  6.81710e-06
 Reference value :  6.85887e-06
 Reference value :  6.93469e-06
 Reference value :  7.00000e-06
 Reference value :  7.00001e-06
 Reference value :  7.00003e-06
 Reference value :  7.00007e-06
 Reference value :  7.00010e-06
 Reference value :  7.00010e-06
 Reference value :  7.00011e-06
 Reference value :  7.00013e-06
 Reference value :  7.00017e-06
 Reference value :  7.00023e-06
 Reference value :  7.00037e-06
 Reference value :  7.00057e-06
 Reference value :  7.00093e-06
 Reference value :  7.00145e-06
 Reference value :  7.00198e-06
 Reference value :  7.00262e-06
 Reference value :  7.00338e-06
 Reference value :  7.00415e-06
 Reference value :  7.00498e-06
 Reference value :  7.00569e-06
 Reference value :  7.00648e-06
 Reference value :  7.00720e-06
 Reference value :  7.00804e-06
 Reference value :  7.00895e-06
 Reference value :  7.01000e-06
 Reference value :  7.01146e-06
 Reference value :  7.01345e-06
 Reference value :  7.01492e-06
 Reference value :  7.01650e-06
 Reference value :  7.01813e-06
 Reference value :  7.01992e-06
 Reference value :  7.02162e-06
 Reference value :  7.02290e-06
 Reference value :  7.02410e-06
 Reference value :  7.02529e-06
 Reference value :  7.02669e-06
 Reference value :  7.02809e-06
 Reference value :  7.02954e-06
 Reference value :  7.03195e-06
 Reference value :  7.03450e-06
 Reference value :  7.03693e-06
 Reference value :  7.03988e-06
 Reference value :  7.04301e-06
 Reference value :  7.04802e-06
 Reference value :  7.05426e-06
 Reference value :  7.05837e-06
 Reference value :  7.06297e-06
 Reference value :  7.06962e-06
 Reference value :  7.07616e-06
 Reference value :  7.08611e-06
 Reference value :  7.09707e-06
 Reference value :  7.11572e-06
 Reference value :  7.14665e-06
 Reference value :  7.19243e-06
 Reference value :  7.25010e-06
 Reference value :  7.25011e-06
 Reference value :  7.25013e-06
 Reference value :  7.25017e-06
 Reference value :  7.25020e-06
 Reference value :  7.25020e-06
 Reference value :  7.25020e-06
 Reference value :  7.25021e-06
 Reference value :  7.25021e-06
 Reference value :  7.25022e-06
 Reference value :  7.25025e-06
 Reference value :  7.25029e-06
 Reference value :  7.25039e-06
 Reference value :  7.25057e-06
 Reference value :  7.25091e-06
 Reference value :  7.25156e-06
 Reference value :  7.25216e-06
 Reference value :  7.25280e-06
 Reference value :  7.25351e-06
 Reference value :  7.25441e-06
 Reference value :  7.25513e-06
 Reference value :  7.25595e-06
 Reference value :  7.25681e-06
 Reference value :  7.25770e-06
 Reference value :  7.25887e-06
 Reference value :  7.26078e-06
 Reference value :  7.26321e-06
 Reference value :  7.26627e-06
 Reference value :  7.27058e-06
 Reference value :  7.27723e-06
 Reference value :  7.29054e-06
 Reference value :  7.31716e-06
 Reference value :  7.37039e-06
 Reference value :  7.47686e-06
 Reference value :  7.50000e-06
 Reference value :  7.50001e-06
 Reference value :  7.50003e-06
 Reference value :  7.50007e-06
 Reference value :  7.50010e-06
 Reference value :  7.50010e-06
 Reference value :  7.50011e-06
 Reference value :  7.50013e-06
 Reference value :  7.50016e-06
 Reference value :  7.50023e-06
 Reference value :  7.50037e-06
 Reference value :  7.50056e-06
 Reference value :  7.50092e-06
 Reference value :  7.50145e-06
 Reference value :  7.50199e-06
 Reference value :  7.50265e-06
 Reference value :  7.50341e-06
 Reference value :  7.50418e-06
 Reference value :  7.50497e-06
 Reference value :  7.50594e-06
 Reference value :  7.50684e-06
 Reference value :  7.50804e-06
 Reference value :  7.50927e-06
 Reference value :  7.51051e-06
 Reference value :  7.51179e-06
 Reference value :  7.51345e-06
 Reference value :  7.51489e-06
 Reference value :  7.51642e-06
 Reference value :  7.51805e-06
 Reference value :  7.51989e-06
 Reference value :  7.52329e-06
 Reference value :  7.52823e-06
 Reference value :  7.53811e-06
 Reference value :  7.55713e-06
 Reference value :  7.59383e-06
 Reference value :  7.66723e-06
 Reference value :  7.75010e-06
 Reference value :  7.75011e-06
 Reference value :  7.75013e-06
 Reference value :  7.75017e-06
 Reference value :  7.75020e-06
 Reference value :  7.75020e-06
 Reference value :  7.75020e-06
 Reference value :  7.75021e-06
 Reference value :  7.75021e-06
 Reference value :  7.75022e-06
 Reference value :  7.75025e-06
 Reference value :  7.75029e-06
 Reference value :  7.75039e-06
 Reference value :  7.75057e-06
 Reference value :  7.75091e-06
 Reference value :  7.75157e-06
 Reference value :  7.75217e-06
 Reference value :  7.75282e-06
 Reference value :  7.75352e-06
 Reference value :  7.75442e-06
 Reference value :  7.75512e-06
 Reference value :  7.75592e-06
 Reference value :  7.75664e-06
 Reference value :  7.75742e-06
 Reference value :  7.75845e-06
 Reference value :  7.75954e-06
 Reference value :  7.76172e-06
 Reference value :  7.76403e-06
 Reference value :  7.76805e-06
 Reference value :  7.77237e-06
 Reference value :  7.78101e-06
 Reference value :  7.79830e-06
 Reference value :  7.83286e-06
 Reference value :  7.90198e-06
 Reference value :  8.00000e-06
 Reference value :  8.00001e-06
 Reference value :  8.00003e-06
 Reference value :  8.00007e-06
 Reference value :  8.00010e-06
 Reference value :  8.00010e-06
 Reference value :  8.00011e-06
 Reference value :  8.00013e-06
 Reference value :  8.00016e-06
 Reference value :  8.00023e-06
 Reference value :  8.00037e-06
 Reference value :  8.00056e-06
 Reference value :  8.00092e-06
 Reference value :  8.00145e-06
 Reference value :  8.00199e-06
 Reference value :  8.00265e-06
 Reference value :  8.00341e-06
 Reference value :  8.00418e-06
 Reference value :  8.00505e-06
 Reference value :  8.00587e-06
 Reference value :  8.00666e-06
 Reference value :  8.00742e-06
 Reference value :  8.00831e-06
 Reference value :  8.00922e-06
 Reference value :  8.01040e-06
 Reference value :  8.01220e-06
 Reference value :  8.01438e-06
 Reference value :  8.01718e-06
 Reference value :  8.01983e-06
 Reference value :  8.02252e-06
 Reference value :  8.02522e-06
 Reference value :  8.02811e-06
 Reference value :  8.03390e-06
 Reference value :  8.04244e-06
 Reference value :  8.05440e-06
 Reference value :  8.07665e-06
 Reference value :  8.12115e-06
 Reference value :  8.21015e-06
 Reference value :  8.25010e-06
 Reference value :  8.25011e-06
 Reference value :  8.25013e-06
 Reference value :  8.25017e-06
 Reference value :  8.25020e-06
 Reference value :  8.25020e-06
 Reference value :  8.25020e-06
 Reference value :  8.25021e-06
 Reference value :  8.25021e-06
 Reference value :  8.25022e-06
 Reference value :  8.25025e-06
 Reference value :  8.25029e-06
 Reference value :  8.25039e-06
 Reference value :  8.25057e-06
 Reference value :  8.25095e-06
 Reference value :  8.25158e-06
 Reference value :  8.25221e-06
 Reference value :  8.25286e-06
 Reference value :  8.25356e-06
 Reference value :  8.25444e-06
 Reference value :  8.25540e-06
 Reference value :  8.25662e-06
 Reference value :  8.25791e-06
 Reference value :  8.25938e-06
 Reference value :  8.26204e-06
 Reference value :  8.26458e-06
 Reference value :  8.26859e-06
 Reference value :  8.27333e-06
 Reference value :  8.28281e-06
 Reference value :  8.30176e-06
 Reference value :  8.33968e-06
 Reference value :  8.41552e-06
 Reference value :  8.50000e-06
 Reference value :  8.50001e-06
 Reference value :  8.50003e-06
 Reference value :  8.50007e-06
 Reference value :  8.50010e-06
 Reference value :  8.50010e-06
 Reference value :  8.50011e-06
 Reference value :  8.50013e-06
 Reference value :  8.50016e-06
 Reference value :  8.50023e-06
 Reference value :  8.50037e-06
 Reference value :  8.50064e-06
 Reference value :  8.50112e-06
 Reference value :  8.50178e-06
 Reference value :  8.50246e-06
 Reference value :  8.50309e-06
 Reference value :  8.50384e-06
 Reference value :  8.50451e-06
 Reference value :  8.50531e-06
 Reference value :  8.50617e-06
 Reference value :  8.50713e-06
 Reference value :  8.50861e-06
 Reference value :  8.51022e-06
 Reference value :  8.51166e-06
 Reference value :  8.51315e-06
 Reference value :  8.51507e-06
 Reference value :  8.51767e-06
 Reference value :  8.52055e-06
 Reference value :  8.52632e-06
 Reference value :  8.52737e-06
 Reference value :  8.52947e-06
 Reference value :  8.53303e-06
 Reference value :  8.53593e-06
 Reference value :  8.53896e-06
 Reference value :  8.54142e-06
 Reference value :  8.54369e-06
 Reference value :  8.54608e-06
 Reference value :  8.54811e-06
 Reference value :  8.54975e-06
 Reference value :  8.55127e-06
 Reference value :  8.55285e-06
 Reference value :  8.55474e-06
 Reference value :  8.55747e-06
 Reference value :  8.56061e-06
 Reference value :  8.56393e-06
 Reference value :  8.56742e-06
 Reference value :  8.57348e-06
 Reference value :  8.58559e-06
 Reference value :  8.60623e-06
 Reference value :  8.62323e-06
 Reference value :  8.63705e-06
 Reference value :  8.65368e-06
 Reference value :  8.67618e-06
 Reference value :  8.70522e-06
 Reference value :  8.74369e-06
 Reference value :  8.75010e-06
 Reference value :  8.75011e-06
 Reference value :  8.75013e-06
 Reference value :  8.75017e-06
 Reference value :  8.75020e-06
 Reference value :  8.75020e-06
 Reference value :  8.75020e-06
 Reference value :  8.75021e-06
 Reference value :  8.75021e-06
 Reference value :  8.75022e-06
 Reference value :  8.75025e-06
 Reference value :  8.75029e-06
 Reference value :  8.75039e-06
 Reference value :  8.75058e-06
 Reference value :  8.75095e-06
 Reference value :  8.75162e-06
 Reference value :  8.75223e-06
 Reference value :  8.75290e-06
 Reference value :  8.75359e-06
 Reference value :  8.75447e-06
 Reference value :  8.75518e-06
 Reference value :  8.75599e-06
 Reference value :  8.75681e-06
 Reference value :  8.75766e-06
 Reference value :  8.75881e-06
 Reference value :  8.76049e-06
 Reference value :  8.76325e-06
 Reference value :  8.76606e-06
 Reference value :  8.77057e-06
 Reference value :  8.77650e-06
 Reference value :  8.78834e-06
 Reference value :  8.81204e-06
 Reference value :  8.85909e-06
 Reference value :  8.95318e-06
 Reference value :  9.00000e-06
 Reference value :  9.00001e-06
 Reference value :  9.00003e-06
 Reference value :  9.00007e-06
 Reference value :  9.00010e-06
 Reference value :  9.00010e-06
 Reference value :  9.00011e-06
 Reference value :  9.00013e-06
 Reference value :  9.00016e-06
 Reference value :  9.00023e-06
 Reference value :  9.00037e-06
 Reference value :  9.00057e-06
 Reference value :  9.00095e-06
 Reference value :  9.00154e-06
 Reference value :  9.00209e-06
 Reference value :  9.00276e-06
 Reference value :  9.00352e-06
 Reference value :  9.00426e-06
 Reference value :  9.00503e-06
 Reference value :  9.00584e-06
 Reference value :  9.00675e-06
 Reference value :  9.00781e-06
 Reference value :  9.00943e-06
 Reference value :  9.01164e-06
 Reference value :  9.01413e-06
 Reference value :  9.01612e-06
 Reference value :  9.01826e-06
 Reference value :  9.02030e-06
 Reference value :  9.02302e-06
 Reference value :  9.02659e-06
 Reference value :  9.03176e-06
 Reference value :  9.03958e-06
 Reference value :  9.05240e-06
 Reference value :  9.07236e-06
 Reference value :  9.10536e-06
 Reference value :  9.15894e-06
 Reference value :  9.24671e-06
 Reference value :  9.25010e-06
 Reference value :  9.25011e-06
 Reference value :  9.25013e-06
 Reference value :  9.25017e-06
 Reference value :  9.25020e-06
 Reference value :  9.25020e-06
 Reference value :  9.25020e-06
 Reference value :  9.25021e-06
 Reference value :  9.25021e-06
 Reference value :  9.25022e-06
 Reference value :  9.25025e-06
 Reference value :  9.25029e-06
 Reference value :  9.25039e-06
 Reference value :  9.25058e-06
 Reference value :  9.25096e-06
 Reference value :  9.25157e-06
 Reference value :  9.25219e-06
 Reference value :  9.25284e-06
 Reference value :  9.25354e-06
 Reference value :  9.25445e-06
 Reference value :  9.25517e-06
 Reference value :  9.25600e-06
 Reference value :  9.25673e-06
 Reference value :  9.25753e-06
 Reference value :  9.25860e-06
 Reference value :  9.25973e-06
 Reference value :  9.26199e-06
 Reference value :  9.26436e-06
 Reference value :  9.26847e-06
 Reference value :  9.27294e-06
 Reference value :  9.28188e-06
 Reference value :  9.29976e-06
 Reference value :  9.33553e-06
 Reference value :  9.40706e-06
 Reference value :  9.50000e-06
 Reference value :  9.50001e-06
 Reference value :  9.50003e-06
 Reference value :  9.50007e-06
 Reference value :  9.50010e-06
 Reference value :  9.50010e-06
 Reference value :  9.50011e-06
 Reference value :  9.50013e-06
 Reference value :  9.50016e-06
 Reference value :  9.50023e-06
 Reference value :  9.50037e-06
 Reference value :  9.50057e-06
 Reference value :  9.50095e-06
 Reference value :  9.50154e-06
 Reference value :  9.50209e-06
 Reference value :  9.50276e-06
 Reference value :  9.50352e-06
 Reference value :  9.50439e-06
 Reference value :  9.50519e-06
 Reference value :  9.50605e-06
 Reference value :  9.50684e-06
 Reference value :  9.50758e-06
 Reference value :  9.50846e-06
 Reference value :  9.50937e-06
 Reference value :  9.51056e-06
 Reference value :  9.51240e-06
 Reference value :  9.51474e-06
 Reference value :  9.51829e-06
 Reference value :  9.52070e-06
 Reference value :  9.52285e-06
 Reference value :  9.52489e-06
 Reference value :  9.52669e-06
 Reference value :  9.52856e-06
 Reference value :  9.53087e-06
 Reference value :  9.53342e-06
 Reference value :  9.53647e-06
 Reference value :  9.54083e-06
 Reference value :  9.54663e-06
 Reference value :  9.55534e-06
 Reference value :  9.56832e-06
 Reference value :  9.58801e-06
 Reference value :  9.61876e-06
 Reference value :  9.66623e-06
 Reference value :  9.73759e-06
 Reference value :  9.75010e-06
 Reference value :  9.75011e-06
 Reference value :  9.75013e-06
 Reference value :  9.75017e-06
 Reference value :  9.75020e-06
 Reference value :  9.75020e-06
 Reference value :  9.75020e-06
 Reference value :  9.75021e-06
 Reference value :  9.75021e-06
 Reference value :  9.75022e-06
 Reference value :  9.75025e-06
 Reference value :  9.75029e-06
 Reference value :  9.75039e-06
 Reference value :  9.75057e-06
 Reference value :  9.75090e-06
 Reference value :  9.75154e-06
 Reference value :  9.75213e-06
 Reference value :  9.75276e-06
 Reference value :  9.75347e-06
 Reference value :  9.75438e-06
 Reference value :  9.75516e-06
 Reference value :  9.75603e-06
 Reference value :  9.75690e-06
 Reference value :  9.75782e-06
 Reference value :  9.75903e-06
 Reference value :  9.76096e-06
 Reference value :  9.76333e-06
 Reference value :  9.76657e-06
 Reference value :  9.77086e-06
 Reference value :  9.77827e-06
 Reference value :  9.79308e-06
 Reference value :  9.81996e-06
 Reference value :  9.87371e-06
 Reference value :  9.98122e-06
 Reference value :  1.00000e-05
 Reference value :  1.00000e-05
 Reference value :  1.00000e-05
 Reference value :  1.00001e-05
 Reference value :  1.00001e-05
 Reference value :  1.00001e-05
 Reference value :  1.00001e-05
 Reference value :  1.00001e-05
 Reference value :  1.00002e-05
 Reference value :  1.00002e-05
 Reference value :  1.00004e-05
 Reference value :  1.00006e-05
 Reference value :  1.00009e-05
 Reference value :  1.00014e-05
 Reference value :  1.00020e-05
 Reference value :  1.00026e-05
 Reference value :  1.00034e-05
 Reference value :  1.00041e-05
 Reference value :  1.00050e-05
 Reference value :  1.00059e-05
 Reference value :  1.00069e-05
 Reference value :  1.00081e-05
 Reference value :  1.00093e-05
 Reference value :  1.00107e-05
 Reference value :  1.00120e-05
 Reference value :  1.00136e-05
 Reference value :  1.00150e-05
 Reference value :  1.00166e-05
 Reference value :  1.00182e-05
 Reference value :  1.00199e-05
 Reference value :  1.00235e-05
 Reference value :  1.00295e-05
 Reference value :  1.00395e-05
 Reference value :  1.00595e-05
 Reference value :  1.00996e-05
 Reference value :  1.01797e-05
 Reference value :  1.02501e-05
 Reference value :  1.02501e-05
 Reference value :  1.02501e-05
 Reference value :  1.02502e-05
 Reference value :  1.02502e-05
 Reference value :  1.02502e-05
 Reference value :  1.02502e-05
 Reference value :  1.02502e-05
 Reference value :  1.02502e-05
 Reference value :  1.02502e-05
 Reference value :  1.02502e-05
 Reference value :  1.02503e-05
 Reference value :  1.02504e-05
 Reference value :  1.02506e-05
 Reference value :  1.02509e-05
 Reference value :  1.02516e-05
 Reference value :  1.02521e-05
 Reference value :  1.02528e-05
 Reference value :  1.02535e-05
 Reference value :  1.02544e-05
 Reference value :  1.02551e-05
 Reference value :  1.02560e-05
 Reference value :  1.02567e-05
 Reference value :  1.02575e-05
 Reference value :  1.02585e-05
 Reference value :  1.02596e-05
 Reference value :  1.02618e-05
 Reference value :  1.02642e-05
 Reference value :  1.02682e-05
 Reference value :  1.02726e-05
 Reference value :  1.02814e-05
 Reference value :  1.02989e-05
 Reference value :  1.03338e-05
 Reference value :  1.04038e-05
 Reference value :  1.05000e-05
 Reference value :  1.05000e-05
 Reference value :  1.05000e-05
 Reference value :  1.05001e-05
 Reference value :  1.05001e-05
 Reference value :  1.05001e-05
 Reference value :  1.05001e-05
 Reference value :  1.05001e-05
 Reference value :  1.05002e-05
 Reference value :  1.05002e-05
 Reference value :  1.05004e-05
 Reference value :  1.05006e-05
 Reference value :  1.05009e-05
 Reference value :  1.05014e-05
 Reference value :  1.05020e-05
 Reference value :  1.05026e-05
 Reference value :  1.05034e-05
 Reference value :  1.05041e-05
 Reference value :  1.05050e-05
 Reference value :  1.05057e-05
 Reference value :  1.05065e-05
 Reference value :  1.05076e-05
 Reference value :  1.05085e-05
 Reference value :  1.05095e-05
 Reference value :  1.05110e-05
 Reference value :  1.05125e-05
 Reference value :  1.05151e-05
 Reference value :  1.05183e-05
 Reference value :  1.05206e-05
 Reference value :  1.05227e-05
 Reference value :  1.05247e-05
 Reference value :  1.05267e-05
 Reference value :  1.05285e-05
 Reference value :  1.05309e-05
 Reference value :  1.05331e-05
 Reference value :  1.05361e-05
 Reference value :  1.05398e-05
 Reference value :  1.05448e-05
 Reference value :  1.05522e-05
 Reference value :  1.05629e-05
 Reference value :  1.05795e-05
 Reference value :  1.06047e-05
 Reference value :  1.06440e-05
 Reference value :  1.07056e-05
 Reference value :  1.07501e-05
 Reference value :  1.07501e-05
 Reference value :  1.07501e-05
 Reference value :  1.07502e-05
 Reference value :  1.07502e-05
 Reference value :  1.07502e-05
 Reference value :  1.07502e-05
 Reference value :  1.07502e-05
 Reference value :  1.07502e-05
 Reference value :  1.07502e-05
 Reference value :  1.07502e-05
 Reference value :  1.07503e-05
 Reference value :  1.07504e-05
 Reference value :  1.07506e-05
 Reference value :  1.07509e-05
 Reference value :  1.07516e-05
 Reference value :  1.07522e-05
 Reference value :  1.07528e-05
 Reference value :  1.07535e-05
 Reference value :  1.07544e-05
 Reference value :  1.07552e-05
 Reference value :  1.07560e-05
 Reference value :  1.07569e-05
 Reference value :  1.07578e-05
 Reference value :  1.07590e-05
 Reference value :  1.07609e-05
 Reference value :  1.07633e-05
 Reference value :  1.07664e-05
 Reference value :  1.07707e-05
 Reference value :  1.07777e-05
 Reference value :  1.07917e-05
 Reference value :  1.08179e-05
 Reference value :  1.08704e-05
 Reference value :  1.09725e-05
 Reference value :  1.10000e-05
 Reference value :  1.10000e-05
 Reference value :  1.10000e-05
 Reference value :  1.10001e-05
 Reference value :  1.10001e-05
 Reference value :  1.10001e-05
 Reference value :  1.10001e-05
 Reference value :  1.10001e-05
 Reference value :  1.10002e-05
 Reference value :  1.10002e-05
 Reference value :  1.10004e-05
 Reference value :  1.10006e-05
 Reference value :  1.10009e-05
 Reference value :  1.10014e-05
 Reference value :  1.10020e-05
 Reference value :  1.10026e-05
 Reference value :  1.10034e-05
 Reference value :  1.10041e-05
 Reference value :  1.10050e-05
 Reference value :  1.10059e-05
 Reference value :  1.10069e-05
 Reference value :  1.10081e-05
 Reference value :  1.10093e-05
 Reference value :  1.10107e-05
 Reference value :  1.10120e-05
 Reference value :  1.10136e-05
 Reference value :  1.10150e-05
 Reference value :  1.10165e-05
 Reference value :  1.10181e-05
 Reference value :  1.10199e-05
 Reference value :  1.10234e-05
 Reference value :  1.10291e-05
 Reference value :  1.10398e-05
 Reference value :  1.10607e-05
 Reference value :  1.11025e-05
 Reference value :  1.11861e-05
 Reference value :  1.12501e-05
 Reference value :  1.12501e-05
 Reference value :  1.12501e-05
 Reference value :  1.12502e-05
 Reference value :  1.12502e-05
 Reference value :  1.12502e-05
 Reference value :  1.12502e-05
 Reference value :  1.12502e-05
 Reference value :  1.12502e-05
 Reference value :  1.12502e-05
 Reference value :  1.12502e-05
 Reference value :  1.12503e-05
 Reference value :  1.12504e-05
 Reference value :  1.12506e-05
 Reference value :  1.12509e-05
 Reference value :  1.12516e-05
 Reference value :  1.12522e-05
 Reference value :  1.12528e-05
 Reference value :  1.12535e-05
 Reference value :  1.12544e-05
 Reference value :  1.12551e-05
 Reference value :  1.12560e-05
 Reference value :  1.12567e-05
 Reference value :  1.12575e-05
 Reference value :  1.12585e-05
 Reference value :  1.12596e-05
 Reference value :  1.12619e-05
 Reference value :  1.12642e-05
 Reference value :  1.12682e-05
 Reference value :  1.12726e-05
 Reference value :  1.12814e-05
 Reference value :  1.12989e-05
 Reference value :  1.13338e-05
 Reference value :  1.14038e-05
 Reference value :  1.15000e-05
 Reference value :  1.15000e-05
 Reference value :  1.15000e-05
 Reference value :  1.15001e-05
 Reference value :  1.15001e-05
 Reference value :  1.15001e-05
 Reference value :  1.15001e-05
 Reference value :  1.15001e-05
 Reference value :  1.15002e-05
 Reference value :  1.15002e-05
 Reference value :  1.15004e-05
 Reference value :  1.15006e-05
 Reference value :  1.15009e-05
 Reference value :  1.15014e-05
 Reference value :  1.15020e-05
 Reference value :  1.15026e-05
 Reference value :  1.15034e-05
 Reference value :  1.15041e-05
 Reference value :  1.15050e-05
 Reference value :  1.15057e-05
 Reference value :  1.15066e-05
 Reference value :  1.15076e-05
 Reference value :  1.15086e-05
 Reference value :  1.15096e-05
 Reference value :  1.15111e-05
 Reference value :  1.15127e-05
 Reference value :  1.15155e-05
 Reference value :  1.15184e-05
 Reference value :  1.15206e-05
 Reference value :  1.15225e-05
 Reference value :  1.15243e-05
 Reference value :  1.15259e-05
 Reference value :  1.15276e-05
 Reference value :  1.15296e-05
 Reference value :  1.15316e-05
 Reference value :  1.15345e-05
 Reference value :  1.15378e-05
 Reference value :  1.15434e-05
 Reference value :  1.15516e-05
 Reference value :  1.15609e-05
 Reference value :  1.15696e-05
 Reference value :  1.15795e-05
 Reference value :  1.15863e-05
 Reference value :  1.15928e-05
 Reference value :  1.15989e-05
 Reference value :  1.16063e-05
 Reference value :  1.16144e-05
 Reference value :  1.16223e-05
 Reference value :  1.16305e-05
 Reference value :  1.16470e-05
 Reference value :  1.16641e-05
 Reference value :  1.16926e-05
 Reference value :  1.17254e-05
 Reference value :  1.17501e-05
 Reference value :  1.17501e-05
 Reference value :  1.17501e-05
 Reference value :  1.17502e-05
 Reference value :  1.17502e-05
 Reference value :  1.17502e-05
 Reference value :  1.17502e-05
 Reference value :  1.17502e-05
 Reference value :  1.17502e-05
 Reference value :  1.17502e-05
 Reference value :  1.17502e-05
 Reference value :  1.17503e-05
 Reference value :  1.17504e-05
 Reference value :  1.17506e-05
 Reference value :  1.17509e-05
 Reference value :  1.17516e-05
 Reference value :  1.17522e-05
 Reference value :  1.17528e-05
 Reference value :  1.17535e-05
 Reference value :  1.17544e-05
 Reference value :  1.17551e-05
 Reference value :  1.17559e-05
 Reference value :  1.17568e-05
 Reference value :  1.17577e-05
 Reference value :  1.17588e-05
 Reference value :  1.17607e-05
 Reference value :  1.17632e-05
 Reference value :  1.17662e-05
 Reference value :  1.17705e-05
 Reference value :  1.17770e-05
 Reference value :  1.17898e-05
 Reference value :  1.18155e-05
 Reference value :  1.18556e-05
 Reference value :  1.19040e-05
 Reference value :  1.19487e-05
 Reference value :  1.19823e-05
 Reference value :  1.20000e-05
 Reference value :  1.20000e-05
 Reference value :  1.20000e-05
 Reference value :  1.20001e-05
 Reference value :  1.20001e-05
 Reference value :  1.20001e-05
 Reference value :  1.20001e-05
 Reference value :  1.20001e-05
 Reference value :  1.20002e-05
 Reference value :  1.20002e-05
 Reference value :  1.20004e-05
 Reference value :  1.20006e-05
 Reference value :  1.20009e-05
 Reference value :  1.20014e-05
 Reference value :  1.20020e-05
 Reference value :  1.20026e-05
 Reference value :  1.20034e-05
 Reference value :  1.20041e-05
 Reference value :  1.20049e-05
 Reference value :  1.20058e-05
 Reference value :  1.20068e-05
 Reference value :  1.20078e-05
 Reference value :  1.20092e-05
 Reference value :  1.20104e-05
 Reference value :  1.20117e-05
 Reference value :  1.20135e-05
 Reference value :  1.20150e-05
 Reference value :  1.20166e-05
 Reference value :  1.20181e-05
 Reference value :  1.20200e-05
 Reference value :  1.20235e-05
 Reference value :  1.20285e-05
 Reference value :  1.20385e-05
 Reference value :  1.20585e-05
 Reference value :  1.20980e-05
 Reference value :  1.21769e-05
 Reference value :  1.22501e-05
 Reference value :  1.22501e-05
 Reference value :  1.22501e-05
 Reference value :  1.22502e-05
 Reference value :  1.22502e-05
 Reference value :  1.22502e-05
 Reference value :  1.22502e-05
 Reference value :  1.22502e-05
 Reference value :  1.22502e-05
 Reference value :  1.22502e-05
 Reference value :  1.22502e-05
 Reference value :  1.22503e-05
 Reference value :  1.22504e-05
 Reference value :  1.22506e-05
 Reference value :  1.22509e-05
 Reference value :  1.22516e-05
 Reference value :  1.22522e-05
 Reference value :  1.22528e-05
 Reference value :  1.22535e-05
 Reference value :  1.22544e-05
 Reference value :  1.22551e-05
 Reference value :  1.22560e-05
 Reference value :  1.22567e-05
 Reference value :  1.22575e-05
 Reference value :  1.22585e-05
 Reference value :  1.22596e-05
 Reference value :  1.22618e-05
 Reference value :  1.22641e-05
 Reference value :  1.22682e-05
 Reference value :  1.22726e-05
 Reference value :  1.22813e-05
 Reference value :  1.22987e-05
 Reference value :  1.23336e-05
 Reference value :  1.24034e-05
 Reference value :  1.25000e-05
 Reference value :  1.25000e-05
 Reference value :  1.25000e-05
 Reference value :  1.25001e-05
 Reference value :  1.25001e-05
 Reference value :  1.25001e-05
 Reference value :  1.25001e-05
 Reference value :  1.25001e-05
 Reference value :  1.25002e-05
 Reference value :  1.25002e-05
 Reference value :  1.25004e-05
 Reference value :  1.25006e-05
 Reference value :  1.25009e-05
 Reference value :  1.25014e-05
 Reference value :  1.25020e-05
 Reference value :  1.25026e-05
 Reference value :  1.25034e-05
 Reference value :  1.25041e-05
 Reference value :  1.25050e-05
 Reference value :  1.25057e-05
 Reference value :  1.25065e-05
 Reference value :  1.25074e-05
 Reference value :  1.25084e-05
 Reference value :  1.25093e-05
 Reference value :  1.25106e-05
 Reference value :  1.25122e-05
 Reference value :  1.25146e-05
 Reference value :  1.25179e-05
 Reference value :  1.25203e-05
 Reference value :  1.25223e-05
 Reference value :  1.25242e-05
 Reference value :  1.25261e-05
 Reference value :  1.25279e-05
 Reference value :  1.25302e-05
 Reference value :  1.25323e-05
 Reference value :  1.25353e-05
 Reference value :  1.25387e-05
 Reference value :  1.25431e-05
 Reference value :  1.25475e-05
 Reference value :  1.25517e-05
 Reference value :  1.25550e-05
 Reference value :  1.25586e-05
 Reference value :  1.25632e-05
 Reference value :  1.25680e-05
 Reference value :  1.25754e-05
 Reference value :  1.25828e-05
 Reference value :  1.25898e-05
 Reference value :  1.25983e-05
 Reference value :  1.26118e-05
 Reference value :  1.26300e-05
 Reference value :  1.26516e-05
 Reference value :  1.26788e-05
 Reference value :  1.27181e-05
 Reference value :  1.27501e-05
 Reference value :  1.27501e-05
 Reference value :  1.27501e-05
 Reference value :  1.27502e-05
 Reference value :  1.27502e-05
 Reference value :  1.27502e-05
 Reference value :  1.27502e-05
 Reference value :  1.27502e-05
 Reference value :  1.27502e-05
 Reference value :  1.27502e-05
 Reference value :  1.27502e-05
 Reference value :  1.27503e-05
 Reference value :  1.27504e-05
 Reference value :  1.27506e-05
 Reference value :  1.27509e-05
 Reference value :  1.27516e-05
 Reference value :  1.27522e-05
 Reference value :  1.27528e-05
 Reference value :  1.27535e-05
 Reference value :  1.27544e-05
 Reference value :  1.27551e-05
 Reference value :  1.27559e-05
 Reference value :  1.27568e-05
 Reference value :  1.27577e-05
 Reference value :  1.27588e-05
 Reference value :  1.27607e-05
 Reference value :  1.27632e-05
 Reference value :  1.27662e-05
 Reference value :  1.27706e-05
 Reference value :  1.27769e-05
 Reference value :  1.27897e-05
 Reference value :  1.28152e-05
 Reference value :  1.28661e-05
 Reference value :  1.29681e-05
 Reference value :  1.30000e-05
 Reference value :  1.30000e-05
 Reference value :  1.30000e-05
 Reference value :  1.30001e-05
 Reference value :  1.30001e-05
 Reference value :  1.30001e-05
 Reference value :  1.30001e-05
 Reference value :  1.30001e-05
 Reference value :  1.30002e-05
 Reference value :  1.30002e-05
 Reference value :  1.30004e-05
 Reference value :  1.30006e-05
 Reference value :  1.30009e-05
 Reference value :  1.30014e-05
 Reference value :  1.30020e-05
 Reference value :  1.30026e-05
 Reference value :  1.30033e-05
 Reference value :  1.30040e-05
 Reference value :  1.30049e-05
 Reference value :  1.30058e-05
 Reference value :  1.30068e-05
 Reference value :  1.30080e-05
 Reference value :  1.30092e-05
 Reference value :  1.30104e-05
 Reference value :  1.30116e-05
 Reference value :  1.30133e-05
 Reference value :  1.30147e-05
 Reference value :  1.30162e-05
 Reference value :  1.30179e-05
 Reference value :  1.30197e-05
 Reference value :  1.30232e-05
 Reference value :  1.30281e-05
 Reference value :  1.30381e-05
 Reference value :  1.30570e-05
 Reference value :  1.30934e-05
 Reference value :  1.31662e-05
 Reference value :  1.32501e-05
 Reference value :  1.32501e-05
 Reference value :  1.32501e-05
 Reference value :  1.32502e-05
 Reference value :  1.32502e-05
 Reference value :  1.32502e-05
 Reference value :  1.32502e-05
 Reference value :  1.32502e-05
 Reference value :  1.32502e-05
 Reference value :  1.32502e-05
 Reference value :  1.32502e-05
 Reference value :  1.32503e-05
 Reference value :  1.32504e-05
 Reference value :  1.32506e-05
 Reference value :  1.32509e-05
 Reference value :  1.32515e-05
 Reference value :  1.32521e-05
 Reference value :  1.32528e-05
 Reference value :  1.32535e-05
 Reference value :  1.32544e-05
 Reference value :  1.32551e-05
 Reference value :  1.32560e-05
 Reference value :  1.32567e-05
 Reference value :  1.32575e-05
 Reference value :  1.32585e-05
 Reference value :  1.32597e-05
 Reference value :  1.32608e-05
 Reference value :  1.32625e-05
 Reference value :  1.32646e-05
 Reference value :  1.32672e-05
 Reference value :  1.32708e-05
 Reference value :  1.32753e-05
 Reference value :  1.32844e-05
 Reference value :  1.32985e-05
 Reference value :  1.33266e-05
 Reference value :  1.33830e-05
 Reference value :  1.34957e-05
 Reference value :  1.35000e-05
 Reference value :  1.35000e-05
 Reference value :  1.35000e-05
 Reference value :  1.35001e-05
 Reference value :  1.35001e-05
 Reference value :  1.35001e-05
 Reference value :  1.35001e-05
 Reference value :  1.35001e-05
 Reference value :  1.35002e-05
 Reference value :  1.35002e-05
 Reference value :  1.35004e-05
 Reference value :  1.35006e-05
 Reference value :  1.35009e-05
 Reference value :  1.35014e-05
 Reference value :  1.35020e-05
 Reference value :  1.35026e-05
 Reference value :  1.35034e-05
 Reference value :  1.35041e-05
 Reference value :  1.35050e-05
 Reference value :  1.35057e-05
 Reference value :  1.35065e-05
 Reference value :  1.35072e-05
 Reference value :  1.35080e-05
 Reference value :  1.35089e-05
 Reference value :  1.35100e-05
 Reference value :  1.35113e-05
 Reference value :  1.35133e-05
 Reference value :  1.35147e-05
 Reference value :  1.35162e-05
 Reference value :  1.35179e-05
 Reference value :  1.35196e-05
 Reference value :  1.35214e-05
 Reference value :  1.35230e-05
 Reference value :  1.35246e-05
 Reference value :  1.35260e-05
 Reference value :  1.35275e-05
 Reference value :  1.35294e-05
 Reference value :  1.35315e-05
 Reference value :  1.35341e-05
 Reference value :  1.35377e-05
 Reference value :  1.35437e-05
 Reference value :  1.35526e-05
 Reference value :  1.35677e-05
 Reference value :  1.35760e-05
 Reference value :  1.35868e-05
 Reference value :  1.35968e-05
 Reference value :  1.36061e-05
 Reference value :  1.36144e-05
 Reference value :  1.36231e-05
 Reference value :  1.36319e-05
 Reference value :  1.36406e-05
 Reference value :  1.36517e-05
 Reference value :  1.36728e-05
 Reference value :  1.37031e-05
 Reference value :  1.37342e-05
 Reference value :  1.37501e-05
 Reference value :  1.37501e-05
 Reference value :  1.37501e-05
 Reference value :  1.37502e-05
 Reference value :  1.37502e-05
 Reference value :  1.37502e-05
 Reference value :  1.37502e-05
 Reference value :  1.37502e-05
 Reference value :  1.37502e-05
 Reference value :  1.37502e-05
 Reference value :  1.37502e-05
 Reference value :  1.37503e-05
 Reference value :  1.37504e-05
 Reference value :  1.37506e-05
 Reference value :  1.37509e-05
 Reference value :  1.37516e-05
 Reference value :  1.37522e-05
 Reference value :  1.37528e-05
 Reference value :  1.37535e-05
 Reference value :  1.37544e-05
 Reference value :  1.37551e-05
 Reference value :  1.37560e-05
 Reference value :  1.37568e-05
 Reference value :  1.37577e-05
 Reference value :  1.37588e-05
 Reference value :  1.37607e-05
 Reference value :  1.37632e-05
 Reference value :  1.37662e-05
 Reference value :  1.37705e-05
 Reference value :  1.37770e-05
 Reference value :  1.37901e-05
 Reference value :  1.38162e-05
 Reference value :  1.38683e-05
 Reference value :  1.39726e-05
 Reference value :  1.40000e-05
 Reference value :  1.40000e-05
 Reference value :  1.40000e-05
 Reference value :  1.40001e-05
 Reference value :  1.40001e-05
 Reference value :  1.40001e-05
 Reference value :  1.40001e-05
 Reference value :  1.40001e-05
 Reference value :  1.40002e-05
 Reference value :  1.40002e-05
 Reference value :  1.40004e-05
 Reference value :  1.40006e-05
 Reference value :  1.40009e-05
 Reference value :  1.40014e-05
 Reference value :  1.40020e-05
 Reference value :  1.40026e-05
 Reference value :  1.40033e-05
 Reference value :  1.40040e-05
 Reference value :  1.40049e-05
 Reference value :  1.40059e-05
 Reference value :  1.40069e-05
 Reference value :  1.40081e-05
 Reference value :  1.40093e-05
 Reference value :  1.40107e-05
 Reference value :  1.40120e-05
 Reference value :  1.40136e-05
 Reference value :  1.40153e-05
 Reference value :  1.40171e-05
 Reference value :  1.40192e-05
 Reference value :  1.40227e-05
 Reference value :  1.40278e-05
 Reference value :  1.40372e-05
 Reference value :  1.40543e-05
 Reference value :  1.40851e-05
 Reference value :  1.41453e-05
 Reference value :  1.42501e-05
 Reference value :  1.42501e-05
 Reference value :  1.42501e-05
 Reference value :  1.42502e-05
 Reference value :  1.42502e-05
 Reference value :  1.42502e-05
 Reference value :  1.42502e-05
 Reference value :  1.42502e-05
 Reference value :  1.42502e-05
 Reference value :  1.42502e-05
 Reference value :  1.42502e-05
 Reference value :  1.42503e-05
 Reference value :  1.42504e-05
 Reference value :  1.42506e-05
 Reference value :  1.42509e-05
 Reference value :  1.42516e-05
 Reference value :  1.42522e-05
 Reference value :  1.42528e-05
 Reference value :  1.42535e-05
 Reference value :  1.42544e-05
 Reference value :  1.42551e-05
 Reference value :  1.42560e-05
 Reference value :  1.42567e-05
 Reference value :  1.42575e-05
 Reference value :  1.42585e-05
 Reference value :  1.42596e-05
 Reference value :  1.42607e-05
 Reference value :  1.42624e-05
 Reference value :  1.42642e-05
 Reference value :  1.42671e-05
 Reference value :  1.42703e-05
 Reference value :  1.42750e-05
 Reference value :  1.42840e-05
 Reference value :  1.42957e-05
 Reference value :  1.43185e-05
 Reference value :  1.43620e-05
 Reference value :  1.44457e-05
 Reference value :  1.45000e-05
 Reference value :  1.45000e-05
 Reference value :  1.45000e-05
 Reference value :  1.45001e-05
 Reference value :  1.45001e-05
 Reference value :  1.45001e-05
 Reference value :  1.45001e-05
 Reference value :  1.45001e-05
 Reference value :  1.45002e-05
 Reference value :  1.45002e-05
 Reference value :  1.45004e-05
 Reference value :  1.45006e-05
 Reference value :  1.45009e-05
 Reference value :  1.45014e-05
 Reference value :  1.45020e-05
 Reference value :  1.45026e-05
 Reference value :  1.45034e-05
 Reference value :  1.45041e-05
 Reference value :  1.45050e-05
 Reference value :  1.45057e-05
 Reference value :  1.45065e-05
 Reference value :  1.45072e-05
 Reference value :  1.45081e-05
 Reference value :  1.45090e-05
 Reference value :  1.45100e-05
 Reference value :  1.45116e-05
 Reference value :  1.45135e-05
 Reference value :  1.45149e-05
 Reference value :  1.45164e-05
 Reference value :  1.45180e-05
 Reference value :  1.45200e-05
 Reference value :  1.45218e-05
 Reference value :  1.45232e-05
 Reference value :  1.45248e-05
 Reference value :  1.45262e-05
 Reference value :  1.45276e-05
 Reference value :  1.45294e-05
 Reference value :  1.45315e-05
 Reference value :  1.45341e-05
 Reference value :  1.45377e-05
 Reference value :  1.45442e-05
 Reference value :  1.45483e-05
 Reference value :  1.45533e-05
 Reference value :  1.45585e-05
 Reference value :  1.45673e-05
 Reference value :  1.45788e-05
 Reference value :  1.45962e-05
 Reference value :  1.46153e-05
 Reference value :  1.46295e-05
 Reference value :  1.46449e-05
 Reference value :  1.46604e-05
 Reference value :  1.46789e-05
 Reference value :  1.47159e-05
 Reference value :  1.47501e-05
 Reference value :  1.47501e-05
 Reference value :  1.47501e-05
 Reference value :  1.47502e-05
 Reference value :  1.47502e-05
 Reference value :  1.47502e-05
 Reference value :  1.47502e-05
 Reference value :  1.47502e-05
 Reference value :  1.47502e-05
 Reference value :  1.47502e-05
 Reference value :  1.47502e-05
 Reference value :  1.47503e-05
 Reference value :  1.47504e-05
 Reference value :  1.47506e-05
 Reference value :  1.47509e-05
 Reference value :  1.47516e-05
 Reference value :  1.47522e-05
 Reference value :  1.47528e-05
 Reference value :  1.47535e-05
 Reference value :  1.47544e-05
 Reference value :  1.47551e-05
 Reference value :  1.47559e-05
 Reference value :  1.47568e-05
 Reference value :  1.47577e-05
 Reference value :  1.47588e-05
 Reference value :  1.47607e-05
 Reference value :  1.47632e-05
 Reference value :  1.47661e-05
 Reference value :  1.47705e-05
 Reference value :  1.47768e-05
 Reference value :  1.47893e-05
 Reference value :  1.48145e-05
 Reference value :  1.48649e-05
 Reference value :  1.49655e-05
 Reference value :  1.50000e-05
 Reference value :  1.50000e-05
 Reference value :  1.50000e-05
 Reference value :  1.50001e-05
 Reference value :  1.50001e-05
 Reference value :  1.50001e-05
 Reference value :  1.50001e-05
 Reference value :  1.50001e-05
 Reference value :  1.50002e-05
 Reference value :  1.50002e-05
 Reference value :  1.50004e-05
 Reference value :  1.50006e-05
 Reference value :  1.50009e-05
 Reference value :  1.50014e-05
 Reference value :  1.50020e-05
 Reference value :  1.50026e-05
 Reference value :  1.50033e-05
 Reference value :  1.50040e-05
 Reference value :  1.50049e-05
 Reference value :  1.50058e-05
 Reference value :  1.50068e-05
 Reference value :  1.50080e-05
 Reference value :  1.50093e-05
 Reference value :  1.50105e-05
 Reference value :  1.50118e-05
 Reference value :  1.50136e-05
 Reference value :  1.50152e-05
 Reference value :  1.50169e-05
 Reference value :  1.50189e-05
 Reference value :  1.50211e-05
 Reference value :  1.50248e-05
 Reference value :  1.50303e-05
 Reference value :  1.50397e-05
 Reference value :  1.50567e-05
 Reference value :  1.50866e-05
 Reference value :  1.51430e-05
 Reference value :  1.52459e-05
 Reference value :  1.52501e-05
 Reference value :  1.52501e-05
 Reference value :  1.52501e-05
 Reference value :  1.52502e-05
 Reference value :  1.52502e-05
 Reference value :  1.52502e-05
 Reference value :  1.52502e-05
 Reference value :  1.52502e-05
 Reference value :  1.52502e-05
 Reference value :  1.52502e-05
 Reference value :  1.52502e-05
 Reference value :  1.52503e-05
 Reference value :  1.52504e-05
 Reference value :  1.52506e-05
 Reference value :  1.52509e-05
 Reference value :  1.52516e-05
 Reference value :  1.52522e-05
 Reference value :  1.52528e-05
 Reference value :  1.52535e-05
 Reference value :  1.52544e-05
 Reference value :  1.52551e-05
 Reference value :  1.52560e-05
 Reference value :  1.52567e-05
 Reference value :  1.52575e-05
 Reference value :  1.52585e-05
 Reference value :  1.52596e-05
 Reference value :  1.52606e-05
 Reference value :  1.52624e-05
 Reference value :  1.52642e-05
 Reference value :  1.52671e-05
 Reference value :  1.52703e-05
 Reference value :  1.52750e-05
 Reference value :  1.52837e-05
 Reference value :  1.52952e-05
 Reference value :  1.53170e-05
 Reference value :  1.53585e-05
 Reference value :  1.54334e-05
 Reference value :  1.55000e-05
 Reference value :  1.55009e-05
 Reference value :  1.55028e-05
 Reference value :  1.55038e-05
 Reference value :  1.55048e-05
 Reference value :  1.55056e-05
 Reference value :  1.55065e-05
 Reference value :  1.55073e-05
 Reference value :  1.55083e-05
 Reference value :  1.55091e-05
 Reference value :  1.55103e-05
 Reference value :  1.55116e-05
 Reference value :  1.55134e-05
 Reference value :  1.55149e-05
 Reference value :  1.55164e-05
 Reference value :  1.55179e-05
 Reference value :  1.55194e-05
 Reference value :  1.55210e-05
 Reference value :  1.55223e-05
 Reference value :  1.55236e-05
 Reference value :  1.55251e-05
 Reference value :  1.55266e-05
 Reference value :  1.55280e-05
 Reference value :  1.55298e-05
 Reference value :  1.55321e-05
 Reference value :  1.55347e-05
 Reference value :  1.55370e-05
 Reference value :  1.55399e-05
 Reference value :  1.55431e-05
 Reference value :  1.55480e-05
 Reference value :  1.55545e-05
 Reference value :  1.55667e-05
 Reference value :  1.55867e-05
 Reference value :  1.56142e-05
 Reference value :  1.56459e-05
 Reference value :  1.56952e-05
 Reference value :  1.57399e-05
 Reference value :  1.57501e-05
 Reference value :  1.57501e-05
 Reference value :  1.57501e-05
 Reference value :  1.57502e-05
[...]
 Reference value :  2.67751e-04
 Reference value :  2.67752e-04
 Reference value :  2.67752e-04
 Reference value :  2.67753e-04
 Reference value :  2.67753e-04
 Reference value :  2.67754e-04
 Reference value :  2.67755e-04
 Reference value :  2.67756e-04
 Reference value :  2.67757e-04
 Reference value :  2.67758e-04
 Reference value :  2.67759e-04
 Reference value :  2.67761e-04
 Reference value :  2.67763e-04
 Reference value :  2.67766e-04
 Reference value :  2.67771e-04
 Reference value :  2.67777e-04
 Reference value :  2.67790e-04
 Reference value :  2.67817e-04
 Reference value :  2.67869e-04
 Reference value :  2.67974e-04
 Reference value :  2.68000e-04
 Reference value :  2.68000e-04
 Reference value :  2.68000e-04
 Reference value :  2.68000e-04
 Reference value :  2.68000e-04
 Reference value :  2.68000e-04
 Reference value :  2.68000e-04
 Reference value :  2.68000e-04
 Reference value :  2.68000e-04
 Reference value :  2.68000e-04
 Reference value :  2.68000e-04
 Reference value :  2.68001e-04
 Reference value :  2.68001e-04
 Reference value :  2.68001e-04
 Reference value :  2.68002e-04
 Reference value :  2.68003e-04
 Reference value :  2.68003e-04
 Reference value :  2.68004e-04
 Reference value :  2.68005e-04
 Reference value :  2.68006e-04
 Reference value :  2.68007e-04
 Reference value :  2.68008e-04
 Reference value :  2.68009e-04
 Reference value :  2.68010e-04
 Reference value :  2.68012e-04
 Reference value :  2.68013e-04
 Reference value :  2.68015e-04
 Reference value :  2.68016e-04
 Reference value :  2.68018e-04
 Reference value :  2.68020e-04
 Reference value :  2.68023e-04
 Reference value :  2.68028e-04
 Reference value :  2.68038e-04
 Reference value :  2.68057e-04
 Reference value :  2.68094e-04
 Reference value :  2.68167e-04
 Reference value :  2.68250e-04
 Reference value :  2.68250e-04
 Reference value :  2.68250e-04
 Reference value :  2.68250e-04
 Reference value :  2.68250e-04
 Reference value :  2.68250e-04
 Reference value :  2.68250e-04
 Reference value :  2.68250e-04
 Reference value :  2.68250e-04
 Reference value :  2.68250e-04
 Reference value :  2.68250e-04
 Reference value :  2.68250e-04
 Reference value :  2.68250e-04
 Reference value :  2.68251e-04
 Reference value :  2.68251e-04
 Reference value :  2.68252e-04
 Reference value :  2.68252e-04
 Reference value :  2.68253e-04
 Reference value :  2.68253e-04
 Reference value :  2.68254e-04
 Reference value :  2.68255e-04
 Reference value :  2.68256e-04
 Reference value :  2.68257e-04
 Reference value :  2.68258e-04
 Reference value :  2.68259e-04
 Reference value :  2.68260e-04
 Reference value :  2.68261e-04
 Reference value :  2.68262e-04
 Reference value :  2.68265e-04
 Reference value :  2.68267e-04
 Reference value :  2.68271e-04
 Reference value :  2.68275e-04
 Reference value :  2.68284e-04
 Reference value :  2.68298e-04
 Reference value :  2.68327e-04
 Reference value :  2.68383e-04
 Reference value :  2.68495e-04
 Reference value :  2.68500e-04
 Reference value :  2.68500e-04
 Reference value :  2.68500e-04
 Reference value :  2.68500e-04
 Reference value :  2.68500e-04
 Reference value :  2.68500e-04
 Reference value :  2.68500e-04
 Reference value :  2.68500e-04
 Reference value :  2.68500e-04
 Reference value :  2.68500e-04
 Reference value :  2.68500e-04
 Reference value :  2.68501e-04
 Reference value :  2.68501e-04
 Reference value :  2.68501e-04
 Reference value :  2.68502e-04
 Reference value :  2.68503e-04
 Reference value :  2.68503e-04
 Reference value :  2.68504e-04
 Reference value :  2.68505e-04
 Reference value :  2.68506e-04
 Reference value :  2.68506e-04
 Reference value :  2.68507e-04
 Reference value :  2.68508e-04
 Reference value :  2.68509e-04
 Reference value :  2.68510e-04
 Reference value :  2.68511e-04
 Reference value :  2.68513e-04
 Reference value :  2.68515e-04
 Reference value :  2.68516e-04
 Reference value :  2.68518e-04
 Reference value :  2.68519e-04
 Reference value :  2.68521e-04
 Reference value :  2.68523e-04
 Reference value :  2.68524e-04
 Reference value :  2.68525e-04
 Reference value :  2.68527e-04
 Reference value :  2.68528e-04
 Reference value :  2.68529e-04
 Reference value :  2.68530e-04
 Reference value :  2.68532e-04
 Reference value :  2.68534e-04
 Reference value :  2.68538e-04
 Reference value :  2.68544e-04
 Reference value :  2.68556e-04
 Reference value :  2.68571e-04
 Reference value :  2.68586e-04
 Reference value :  2.68600e-04
 Reference value :  2.68620e-04
 Reference value :  2.68654e-04
 Reference value :  2.68711e-04
 Reference value :  2.68750e-04
 Reference value :  2.68750e-04
 Reference value :  2.68750e-04
 Reference value :  2.68750e-04
 Reference value :  2.68750e-04
 Reference value :  2.68750e-04
 Reference value :  2.68750e-04
 Reference value :  2.68750e-04
 Reference value :  2.68750e-04
 Reference value :  2.68750e-04
 Reference value :  2.68750e-04
 Reference value :  2.68750e-04
 Reference value :  2.68750e-04
 Reference value :  2.68751e-04
 Reference value :  2.68751e-04
 Reference value :  2.68752e-04
 Reference value :  2.68752e-04
 Reference value :  2.68753e-04
 Reference value :  2.68753e-04
 Reference value :  2.68754e-04
 Reference value :  2.68755e-04
 Reference value :  2.68756e-04
 Reference value :  2.68757e-04
 Reference value :  2.68758e-04
 Reference value :  2.68759e-04
 Reference value :  2.68761e-04
 Reference value :  2.68763e-04
 Reference value :  2.68766e-04
 Reference value :  2.68771e-04
 Reference value :  2.68778e-04
 Reference value :  2.68792e-04
 Reference value :  2.68818e-04
 Reference value :  2.68870e-04
 Reference value :  2.68975e-04
 Reference value :  2.69000e-04
 Reference value :  2.69000e-04
 Reference value :  2.69000e-04
 Reference value :  2.69000e-04
 Reference value :  2.69000e-04
 Reference value :  2.69000e-04
 Reference value :  2.69000e-04
 Reference value :  2.69000e-04
 Reference value :  2.69000e-04
 Reference value :  2.69000e-04
 Reference value :  2.69000e-04
 Reference value :  2.69001e-04
 Reference value :  2.69001e-04
 Reference value :  2.69001e-04
 Reference value :  2.69002e-04
 Reference value :  2.69003e-04
 Reference value :  2.69003e-04
 Reference value :  2.69004e-04
 Reference value :  2.69005e-04
 Reference value :  2.69006e-04
 Reference value :  2.69007e-04
 Reference value :  2.69008e-04
 Reference value :  2.69009e-04
 Reference value :  2.69010e-04
 Reference value :  2.69012e-04
 Reference value :  2.69013e-04
 Reference value :  2.69015e-04
 Reference value :  2.69016e-04
 Reference value :  2.69018e-04
 Reference value :  2.69020e-04
 Reference value :  2.69024e-04
 Reference value :  2.69029e-04
 Reference value :  2.69038e-04
 Reference value :  2.69056e-04
 Reference value :  2.69090e-04
 Reference value :  2.69155e-04
 Reference value :  2.69250e-04
 Reference value :  2.69250e-04
 Reference value :  2.69250e-04
 Reference value :  2.69250e-04
 Reference value :  2.69250e-04
 Reference value :  2.69250e-04
 Reference value :  2.69250e-04
 Reference value :  2.69250e-04
 Reference value :  2.69250e-04
 Reference value :  2.69250e-04
 Reference value :  2.69250e-04
 Reference value :  2.69250e-04
 Reference value :  2.69250e-04
 Reference value :  2.69251e-04
 Reference value :  2.69251e-04
 Reference value :  2.69252e-04
 Reference value :  2.69252e-04
 Reference value :  2.69253e-04
 Reference value :  2.69253e-04
 Reference value :  2.69254e-04
 Reference value :  2.69255e-04
 Reference value :  2.69256e-04
 Reference value :  2.69257e-04
 Reference value :  2.69258e-04
 Reference value :  2.69259e-04
 Reference value :  2.69260e-04
 Reference value :  2.69262e-04
 Reference value :  2.69264e-04
 Reference value :  2.69268e-04
 Reference value :  2.69273e-04
 Reference value :  2.69281e-04
 Reference value :  2.69299e-04
 Reference value :  2.69334e-04
 Reference value :  2.69403e-04
 Reference value :  2.69500e-04
 Reference value :  2.69500e-04
 Reference value :  2.69500e-04
 Reference value :  2.69500e-04
 Reference value :  2.69500e-04
 Reference value :  2.69500e-04
 Reference value :  2.69500e-04
 Reference value :  2.69500e-04
 Reference value :  2.69500e-04
 Reference value :  2.69500e-04
 Reference value :  2.69500e-04
 Reference value :  2.69501e-04
 Reference value :  2.69501e-04
 Reference value :  2.69501e-04
 Reference value :  2.69502e-04
 Reference value :  2.69503e-04
 Reference value :  2.69503e-04
 Reference value :  2.69504e-04
 Reference value :  2.69505e-04
 Reference value :  2.69506e-04
 Reference value :  2.69507e-04
 Reference value :  2.69507e-04
 Reference value :  2.69508e-04
 Reference value :  2.69509e-04
 Reference value :  2.69510e-04
 Reference value :  2.69512e-04
 Reference value :  2.69514e-04
 Reference value :  2.69517e-04
 Reference value :  2.69519e-04
 Reference value :  2.69521e-04
 Reference value :  2.69523e-04
 Reference value :  2.69525e-04
 Reference value :  2.69526e-04
 Reference value :  2.69527e-04
 Reference value :  2.69529e-04
 Reference value :  2.69531e-04
 Reference value :  2.69534e-04
 Reference value :  2.69537e-04
 Reference value :  2.69544e-04
 Reference value :  2.69550e-04
 Reference value :  2.69557e-04
 Reference value :  2.69565e-04
 Reference value :  2.69574e-04
 Reference value :  2.69588e-04
 Reference value :  2.69599e-04
 Reference value :  2.69610e-04
 Reference value :  2.69623e-04
 Reference value :  2.69639e-04
 Reference value :  2.69670e-04
 Reference value :  2.69725e-04
 Reference value :  2.69750e-04
 Reference value :  2.69750e-04
 Reference value :  2.69750e-04
 Reference value :  2.69750e-04
 Reference value :  2.69750e-04
 Reference value :  2.69750e-04
 Reference value :  2.69750e-04
 Reference value :  2.69750e-04
 Reference value :  2.69750e-04
 Reference value :  2.69750e-04
 Reference value :  2.69750e-04
 Reference value :  2.69750e-04
 Reference value :  2.69750e-04
 Reference value :  2.69751e-04
 Reference value :  2.69751e-04
 Reference value :  2.69752e-04
 Reference value :  2.69752e-04
 Reference value :  2.69753e-04
 Reference value :  2.69753e-04
 Reference value :  2.69754e-04
 Reference value :  2.69755e-04
 Reference value :  2.69756e-04
 Reference value :  2.69757e-04
 Reference value :  2.69758e-04
 Reference value :  2.69759e-04
 Reference value :  2.69761e-04
 Reference value :  2.69763e-04
 Reference value :  2.69766e-04
 Reference value :  2.69771e-04
 Reference value :  2.69778e-04
 Reference value :  2.69791e-04
 Reference value :  2.69818e-04
 Reference value :  2.69870e-04
 Reference value :  2.69975e-04
 Reference value :  2.70000e-04
 Reference value :  2.70000e-04
 Reference value :  2.70000e-04
 Reference value :  2.70000e-04
 Reference value :  2.70000e-04
 Reference value :  2.70000e-04
 Reference value :  2.70000e-04
 Reference value :  2.70000e-04
 Reference value :  2.70000e-04
 Reference value :  2.70000e-04
 Reference value :  2.70000e-04
 Reference value :  2.70001e-04
 Reference value :  2.70001e-04
 Reference value :  2.70001e-04
 Reference value :  2.70002e-04
 Reference value :  2.70003e-04
 Reference value :  2.70003e-04
 Reference value :  2.70004e-04
 Reference value :  2.70005e-04
 Reference value :  2.70006e-04
 Reference value :  2.70007e-04
 Reference value :  2.70008e-04
 Reference value :  2.70009e-04
 Reference value :  2.70010e-04
 Reference value :  2.70012e-04
 Reference value :  2.70014e-04
 Reference value :  2.70015e-04
 Reference value :  2.70017e-04
 Reference value :  2.70019e-04
 Reference value :  2.70021e-04
 Reference value :  2.70025e-04
 Reference value :  2.70030e-04
 Reference value :  2.70039e-04
 Reference value :  2.70055e-04
 Reference value :  2.70084e-04
 Reference value :  2.70139e-04
 Reference value :  2.70239e-04
 Reference value :  2.70250e-04
 Reference value :  2.70250e-04
 Reference value :  2.70250e-04
 Reference value :  2.70250e-04
 Reference value :  2.70250e-04
 Reference value :  2.70250e-04
 Reference value :  2.70250e-04
 Reference value :  2.70250e-04
 Reference value :  2.70250e-04
 Reference value :  2.70250e-04
 Reference value :  2.70250e-04
 Reference value :  2.70250e-04
 Reference value :  2.70250e-04
 Reference value :  2.70251e-04
 Reference value :  2.70251e-04
 Reference value :  2.70252e-04
 Reference value :  2.70252e-04
 Reference value :  2.70253e-04
 Reference value :  2.70254e-04
 Reference value :  2.70254e-04
 Reference value :  2.70255e-04
 Reference value :  2.70256e-04
 Reference value :  2.70257e-04
 Reference value :  2.70257e-04
 Reference value :  2.70258e-04
 Reference value :  2.70260e-04
 Reference value :  2.70262e-04
 Reference value :  2.70264e-04
 Reference value :  2.70268e-04
 Reference value :  2.70272e-04
 Reference value :  2.70281e-04
 Reference value :  2.70298e-04
 Reference value :  2.70332e-04
 Reference value :  2.70401e-04
 Reference value :  2.70500e-04
 Reference value :  2.70500e-04
 Reference value :  2.70500e-04
 Reference value :  2.70500e-04
 Reference value :  2.70500e-04
 Reference value :  2.70500e-04
 Reference value :  2.70500e-04
 Reference value :  2.70500e-04
 Reference value :  2.70500e-04
 Reference value :  2.70500e-04
 Reference value :  2.70500e-04
 Reference value :  2.70501e-04
 Reference value :  2.70501e-04
 Reference value :  2.70501e-04
 Reference value :  2.70502e-04
 Reference value :  2.70503e-04
 Reference value :  2.70503e-04
 Reference value :  2.70504e-04
 Reference value :  2.70505e-04
 Reference value :  2.70506e-04
 Reference value :  2.70507e-04
 Reference value :  2.70507e-04
 Reference value :  2.70508e-04
 Reference value :  2.70509e-04
 Reference value :  2.70510e-04
 Reference value :  2.70512e-04
 Reference value :  2.70514e-04
 Reference value :  2.70517e-04
 Reference value :  2.70519e-04
 Reference value :  2.70522e-04
 Reference value :  2.70524e-04
 Reference value :  2.70525e-04
 Reference value :  2.70527e-04
 Reference value :  2.70528e-04
 Reference value :  2.70530e-04
 Reference value :  2.70533e-04
 Reference value :  2.70535e-04
 Reference value :  2.70539e-04
 Reference value :  2.70543e-04
 Reference value :  2.70548e-04
 Reference value :  2.70556e-04
 Reference value :  2.70571e-04
 Reference value :  2.70591e-04
 Reference value :  2.70623e-04
 Reference value :  2.70669e-04
 Reference value :  2.70712e-04
 Reference value :  2.70750e-04
 Reference value :  2.70750e-04
 Reference value :  2.70750e-04
 Reference value :  2.70750e-04
 Reference value :  2.70750e-04
 Reference value :  2.70750e-04
 Reference value :  2.70750e-04
 Reference value :  2.70750e-04
 Reference value :  2.70750e-04
 Reference value :  2.70750e-04
 Reference value :  2.70750e-04
 Reference value :  2.70750e-04
 Reference value :  2.70750e-04
 Reference value :  2.70751e-04
 Reference value :  2.70751e-04
 Reference value :  2.70752e-04
 Reference value :  2.70752e-04
 Reference value :  2.70753e-04
 Reference value :  2.70754e-04
 Reference value :  2.70754e-04
 Reference value :  2.70755e-04
 Reference value :  2.70756e-04
 Reference value :  2.70757e-04
 Reference value :  2.70758e-04
 Reference value :  2.70759e-04
 Reference value :  2.70761e-04
 Reference value :  2.70763e-04
 Reference value :  2.70766e-04
 Reference value :  2.70771e-04
 Reference value :  2.70777e-04
 Reference value :  2.70790e-04
 Reference value :  2.70817e-04
 Reference value :  2.70870e-04
 Reference value :  2.70976e-04
 Reference value :  2.71000e-04
 Reference value :  2.71000e-04
 Reference value :  2.71000e-04
 Reference value :  2.71000e-04
 Reference value :  2.71000e-04
 Reference value :  2.71000e-04
 Reference value :  2.71000e-04
 Reference value :  2.71000e-04
 Reference value :  2.71000e-04
 Reference value :  2.71000e-04
 Reference value :  2.71000e-04
 Reference value :  2.71001e-04
 Reference value :  2.71001e-04
 Reference value :  2.71001e-04
 Reference value :  2.71002e-04
 Reference value :  2.71003e-04
 Reference value :  2.71003e-04
 Reference value :  2.71004e-04
 Reference value :  2.71005e-04
 Reference value :  2.71006e-04
 Reference value :  2.71007e-04
 Reference value :  2.71008e-04
 Reference value :  2.71009e-04
 Reference value :  2.71011e-04
 Reference value :  2.71012e-04
 Reference value :  2.71013e-04
 Reference value :  2.71015e-04
 Reference value :  2.71016e-04
 Reference value :  2.71018e-04
 Reference value :  2.71020e-04
 Reference value :  2.71023e-04
 Reference value :  2.71028e-04
 Reference value :  2.71038e-04
 Reference value :  2.71057e-04
 Reference value :  2.71094e-04
 Reference value :  2.71167e-04
 Reference value :  2.71250e-04
 Reference value :  2.71250e-04
 Reference value :  2.71250e-04
 Reference value :  2.71250e-04
 Reference value :  2.71250e-04
 Reference value :  2.71250e-04
 Reference value :  2.71250e-04
 Reference value :  2.71250e-04
 Reference value :  2.71250e-04
 Reference value :  2.71250e-04
 Reference value :  2.71250e-04
 Reference value :  2.71250e-04
 Reference value :  2.71250e-04
 Reference value :  2.71251e-04
 Reference value :  2.71251e-04
 Reference value :  2.71252e-04
 Reference value :  2.71252e-04
 Reference value :  2.71253e-04
 Reference value :  2.71254e-04
 Reference value :  2.71254e-04
 Reference value :  2.71255e-04
 Reference value :  2.71256e-04
 Reference value :  2.71257e-04
 Reference value :  2.71257e-04
 Reference value :  2.71258e-04
 Reference value :  2.71260e-04
 Reference value :  2.71262e-04
 Reference value :  2.71264e-04
 Reference value :  2.71268e-04
 Reference value :  2.71272e-04
 Reference value :  2.71281e-04
 Reference value :  2.71298e-04
 Reference value :  2.71333e-04
 Reference value :  2.71402e-04
 Reference value :  2.71500e-04
 Reference value :  2.71500e-04
 Reference value :  2.71500e-04
 Reference value :  2.71500e-04
 Reference value :  2.71500e-04
 Reference value :  2.71500e-04
 Reference value :  2.71500e-04
 Reference value :  2.71500e-04
 Reference value :  2.71500e-04
 Reference value :  2.71500e-04
 Reference value :  2.71500e-04
 Reference value :  2.71501e-04
 Reference value :  2.71501e-04
 Reference value :  2.71501e-04
 Reference value :  2.71502e-04
 Reference value :  2.71503e-04
 Reference value :  2.71503e-04
 Reference value :  2.71504e-04
 Reference value :  2.71505e-04
 Reference value :  2.71506e-04
 Reference value :  2.71507e-04
 Reference value :  2.71507e-04
 Reference value :  2.71508e-04
 Reference value :  2.71509e-04
 Reference value :  2.71510e-04
 Reference value :  2.71512e-04
 Reference value :  2.71514e-04
 Reference value :  2.71517e-04
 Reference value :  2.71520e-04
 Reference value :  2.71523e-04
 Reference value :  2.71525e-04
 Reference value :  2.71528e-04
 Reference value :  2.71534e-04
 Reference value :  2.71542e-04
 Reference value :  2.71554e-04
 Reference value :  2.71577e-04
 Reference value :  2.71621e-04
 Reference value :  2.71710e-04
 Reference value :  2.71750e-04
 Reference value :  2.71750e-04
 Reference value :  2.71750e-04
 Reference value :  2.71750e-04
 Reference value :  2.71750e-04
 Reference value :  2.71750e-04
 Reference value :  2.71750e-04
 Reference value :  2.71750e-04
 Reference value :  2.71750e-04
 Reference value :  2.71750e-04
 Reference value :  2.71750e-04
 Reference value :  2.71750e-04
 Reference value :  2.71750e-04
 Reference value :  2.71751e-04
 Reference value :  2.71751e-04
 Reference value :  2.71752e-04
 Reference value :  2.71752e-04
 Reference value :  2.71753e-04
 Reference value :  2.71754e-04
 Reference value :  2.71754e-04
 Reference value :  2.71755e-04
 Reference value :  2.71757e-04
 Reference value :  2.71758e-04
 Reference value :  2.71759e-04
 Reference value :  2.71762e-04
 Reference value :  2.71765e-04
 Reference value :  2.71769e-04
 Reference value :  2.71773e-04
 Reference value :  2.71783e-04
 Reference value :  2.71802e-04
 Reference value :  2.71840e-04
 Reference value :  2.71916e-04
 Reference value :  2.72000e-04
No. of Data Rows : 42013
ngspice-44 done
