
Note: Compatibility modes selected: hs a


Circuit: ** sch_path: /home/samantha/cace/sar-adc-using-sky130-pdk/runs/run_2025-09-03_21-46-28/parameters/sampling_rate/run_4/sampling_rate.sch

option SCALE: Scale is set to 1e-06 for instance and model parameters
option SCALE: Scale is set to 1e-06 for instance and model parameters
option SCALE: Scale is set to 1e-06 for instance and model parameters
option SCALE: Scale is set to 1e-06 for instance and model parameters
Doing analysis at TEMP = 27.000000 and TNOM = 27.000000

Using KLU as Direct Linear Solver
Operating point simulation skipped by 'uic',
  now using transient initial conditions.
 Reference value :  1.00000e-12
 Reference value :  1.02703e-12
 Reference value :  1.08108e-12
 Reference value :  1.40542e-12
 Reference value :  2.17109e-12
 Reference value :  4.28005e-12
 Reference value :  9.16130e-12
 Reference value :  2.00039e-11
 Reference value :  5.89051e-11
 Reference value :  1.05187e-10
 Reference value :  1.36308e-10
 Reference value :  2.60792e-10
 Reference value :  4.26771e-10
 Reference value :  9.68906e-10
 Reference value :  1.83833e-09
 Reference value :  3.14618e-09
 Reference value :  5.00441e-09
 Reference value :  6.66629e-09
 Reference value :  8.00269e-09
 Reference value :  9.61757e-09
 Reference value :  1.05450e-08
 Reference value :  1.12083e-08
 Reference value :  1.19600e-08
 Reference value :  1.37908e-08
 Reference value :  1.76304e-08
 Reference value :  2.53042e-08
 Reference value :  2.90759e-08
 Reference value :  3.70649e-08
 Reference value :  4.69582e-08
 Reference value :  6.73970e-08
 Reference value :  1.34365e-07
 Reference value :  2.50100e-07
 Reference value :  2.50110e-07
 Reference value :  2.50170e-07
 Reference value :  2.50208e-07
 Reference value :  2.50254e-07
 Reference value :  2.50312e-07
 Reference value :  2.50542e-07
 Reference value :  2.50957e-07
 Reference value :  2.51695e-07
 Reference value :  2.52676e-07
 Reference value :  2.53256e-07
 Reference value :  2.53737e-07
 Reference value :  2.54792e-07
 Reference value :  2.56196e-07
 Reference value :  2.58750e-07
 Reference value :  2.64000e-07
 Reference value :  3.33095e-07
 Reference value :  5.00000e-07
 Reference value :  5.00030e-07
 Reference value :  5.00100e-07
 Reference value :  5.00124e-07
 Reference value :  5.00219e-07
 Reference value :  5.00337e-07
 Reference value :  5.00822e-07
 Reference value :  5.01575e-07
 Reference value :  5.02415e-07
 Reference value :  5.02908e-07
 Reference value :  5.04022e-07
 Reference value :  5.05576e-07
 Reference value :  5.06705e-07
 Reference value :  5.07728e-07
 Reference value :  5.09967e-07
 Reference value :  5.12337e-07
 Reference value :  5.15627e-07
 Reference value :  5.20964e-07
 Reference value :  5.25633e-07
 Reference value :  5.47948e-07
 Reference value :  6.33623e-07
 Reference value :  7.50100e-07
 Reference value :  7.50130e-07
 Reference value :  7.50200e-07
 Reference value :  7.50224e-07
 Reference value :  7.50320e-07
 Reference value :  7.50448e-07
 Reference value :  7.50819e-07
 Reference value :  7.51723e-07
 Reference value :  7.52770e-07
 Reference value :  7.53306e-07
 Reference value :  7.53899e-07
 Reference value :  7.55056e-07
 Reference value :  7.55752e-07
 Reference value :  7.58074e-07
 Reference value :  7.68827e-07
 Reference value :  8.02228e-07
 Reference value :  9.35834e-07
 Reference value :  1.00003e-06
 Reference value :  1.00010e-06
 Reference value :  1.00012e-06
 Reference value :  1.00022e-06
 Reference value :  1.00051e-06
 Reference value :  1.00082e-06
 Reference value :  1.00158e-06
 Reference value :  1.00242e-06
 Reference value :  1.00289e-06
 Reference value :  1.00396e-06
 Reference value :  1.00500e-06
 Reference value :  1.00554e-06
 Reference value :  1.00714e-06
 Reference value :  1.00863e-06
 Reference value :  1.01002e-06
 Reference value :  1.01121e-06
 Reference value :  1.01220e-06
 Reference value :  1.01419e-06
 Reference value :  1.01513e-06
 Reference value :  1.01722e-06
 Reference value :  1.02040e-06
 Reference value :  1.02788e-06
 Reference value :  1.04816e-06
 Reference value :  1.11146e-06
 Reference value :  1.25010e-06
 Reference value :  1.25013e-06
 Reference value :  1.25017e-06
 Reference value :  1.25021e-06
 Reference value :  1.25026e-06
 Reference value :  1.25045e-06
 Reference value :  1.25082e-06
 Reference value :  1.25172e-06
 Reference value :  1.25277e-06
 Reference value :  1.25333e-06
 Reference value :  1.25454e-06
 Reference value :  1.25607e-06
 Reference value :  1.25876e-06
 Reference value :  1.26505e-06
 Reference value :  1.28767e-06
 Reference value :  1.37578e-06
 Reference value :  1.50000e-06
 Reference value :  1.50003e-06
 Reference value :  1.50010e-06
 Reference value :  1.50012e-06
 Reference value :  1.50022e-06
 Reference value :  1.50051e-06
 Reference value :  1.50082e-06
 Reference value :  1.50158e-06
 Reference value :  1.50242e-06
 Reference value :  1.50290e-06
 Reference value :  1.50342e-06
 Reference value :  1.50474e-06
 Reference value :  1.50554e-06
 Reference value :  1.50619e-06
 Reference value :  1.50692e-06
 Reference value :  1.50765e-06
 Reference value :  1.50942e-06
 Reference value :  1.51640e-06
 Reference value :  1.53606e-06
 Reference value :  1.60732e-06
 Reference value :  1.75010e-06
 Reference value :  1.75013e-06
 Reference value :  1.75020e-06
 Reference value :  1.75022e-06
 Reference value :  1.75032e-06
 Reference value :  1.75058e-06
 Reference value :  1.75129e-06
 Reference value :  1.75215e-06
 Reference value :  1.75331e-06
 Reference value :  1.75445e-06
 Reference value :  1.75571e-06
 Reference value :  1.75804e-06
 Reference value :  1.76314e-06
 Reference value :  1.77933e-06
 Reference value :  1.93041e-06
 Reference value :  2.00001e-06
 Reference value :  2.00007e-06
 Reference value :  2.00012e-06
 Reference value :  2.00022e-06
 Reference value :  2.00051e-06
 Reference value :  2.00118e-06
 Reference value :  2.00158e-06
 Reference value :  2.00242e-06
 Reference value :  2.00289e-06
 Reference value :  2.00396e-06
 Reference value :  2.00500e-06
 Reference value :  2.00636e-06
 Reference value :  2.00863e-06
 Reference value :  2.01002e-06
 Reference value :  2.01122e-06
 Reference value :  2.01220e-06
 Reference value :  2.01419e-06
 Reference value :  2.01513e-06
 Reference value :  2.01611e-06
 Reference value :  2.01722e-06
 Reference value :  2.02039e-06
 Reference value :  2.02535e-06
 Reference value :  2.03110e-06
 Reference value :  2.03792e-06
 Reference value :  2.04052e-06
 Reference value :  2.04704e-06
 Reference value :  2.05675e-06
 Reference value :  2.07500e-06
 Reference value :  2.10482e-06
 Reference value :  2.18517e-06
 Reference value :  2.24055e-06
 Reference value :  2.25011e-06
 Reference value :  2.25017e-06
 Reference value :  2.25021e-06
 Reference value :  2.25026e-06
 Reference value :  2.25045e-06
 Reference value :  2.25082e-06
 Reference value :  2.25172e-06
 Reference value :  2.25277e-06
 Reference value :  2.25326e-06
 Reference value :  2.25382e-06
 Reference value :  2.25436e-06
 Reference value :  2.25578e-06
 Reference value :  2.25823e-06
 Reference value :  2.26987e-06
 Reference value :  2.30691e-06
 Reference value :  2.45506e-06
 Reference value :  2.50001e-06
 Reference value :  2.50007e-06
 Reference value :  2.50011e-06
 Reference value :  2.50016e-06
 Reference value :  2.50034e-06
 Reference value :  2.50082e-06
 Reference value :  2.50154e-06
 Reference value :  2.50195e-06
 Reference value :  2.50235e-06
 Reference value :  2.50282e-06
 Reference value :  2.50333e-06
 Reference value :  2.50389e-06
 Reference value :  2.50537e-06
 Reference value :  2.50595e-06
 Reference value :  2.50665e-06
 Reference value :  2.50740e-06
 Reference value :  2.50922e-06
 Reference value :  2.51641e-06
 Reference value :  2.53960e-06
 Reference value :  2.63237e-06
 Reference value :  2.75011e-06
 Reference value :  2.75017e-06
 Reference value :  2.75021e-06
 Reference value :  2.75026e-06
 Reference value :  2.75045e-06
 Reference value :  2.75082e-06
 Reference value :  2.75172e-06
 Reference value :  2.75277e-06
 Reference value :  2.75330e-06
 Reference value :  2.75450e-06
 Reference value :  2.75575e-06
 Reference value :  2.75737e-06
 Reference value :  2.75949e-06
 Reference value :  2.76349e-06
 Reference value :  2.77349e-06
 Reference value :  2.81345e-06
 Reference value :  2.97331e-06
 Reference value :  3.00001e-06
 Reference value :  3.00007e-06
 Reference value :  3.00011e-06
 Reference value :  3.00016e-06
 Reference value :  3.00034e-06
 Reference value :  3.00082e-06
 Reference value :  3.00158e-06
 Reference value :  3.00242e-06
 Reference value :  3.00290e-06
 Reference value :  3.00390e-06
 Reference value :  3.00483e-06
 Reference value :  3.00596e-06
 Reference value :  3.00766e-06
 Reference value :  3.00847e-06
 Reference value :  3.00932e-06
 Reference value :  3.01016e-06
 Reference value :  3.01112e-06
 Reference value :  3.01189e-06
 Reference value :  3.01349e-06
 Reference value :  3.01436e-06
 Reference value :  3.01523e-06
 Reference value :  3.01617e-06
 Reference value :  3.01867e-06
 Reference value :  3.02335e-06
 Reference value :  3.05049e-06
 Reference value :  3.07303e-06
 Reference value :  3.11313e-06
 Reference value :  3.15382e-06
 Reference value :  3.16575e-06
 Reference value :  3.18787e-06
 Reference value :  3.24838e-06
 Reference value :  3.25011e-06
 Reference value :  3.25017e-06
 Reference value :  3.25021e-06
 Reference value :  3.25026e-06
 Reference value :  3.25045e-06
 Reference value :  3.25082e-06
 Reference value :  3.25172e-06
 Reference value :  3.25277e-06
 Reference value :  3.25331e-06
 Reference value :  3.25450e-06
 Reference value :  3.25599e-06
 Reference value :  3.25862e-06
 Reference value :  3.26463e-06
 Reference value :  3.28553e-06
 Reference value :  3.36668e-06
 Reference value :  3.50000e-06
 Reference value :  3.50003e-06
 Reference value :  3.50010e-06
 Reference value :  3.50016e-06
 Reference value :  3.50034e-06
 Reference value :  3.50082e-06
 Reference value :  3.50154e-06
 Reference value :  3.50195e-06
 Reference value :  3.50282e-06
 Reference value :  3.50333e-06
 Reference value :  3.50464e-06
 Reference value :  3.50595e-06
 Reference value :  3.50740e-06
 Reference value :  3.50922e-06
 Reference value :  3.51231e-06
 Reference value :  3.52414e-06
 Reference value :  3.57041e-06
 Reference value :  3.75011e-06
 Reference value :  3.75017e-06
 Reference value :  3.75021e-06
 Reference value :  3.75026e-06
 Reference value :  3.75045e-06
 Reference value :  3.75082e-06
 Reference value :  3.75172e-06
 Reference value :  3.75277e-06
 Reference value :  3.75330e-06
 Reference value :  3.75444e-06
 Reference value :  3.75500e-06
 Reference value :  3.75570e-06
 Reference value :  3.75728e-06
 Reference value :  3.75957e-06
 Reference value :  3.76353e-06
 Reference value :  3.77279e-06
 Reference value :  3.80985e-06
 Reference value :  4.00000e-06
 Reference value :  4.00003e-06
 Reference value :  4.00010e-06
 Reference value :  4.00012e-06
 Reference value :  4.00022e-06
 Reference value :  4.00051e-06
 Reference value :  4.00082e-06
 Reference value :  4.00118e-06
 Reference value :  4.00158e-06
 Reference value :  4.00201e-06
 Reference value :  4.00290e-06
 Reference value :  4.00390e-06
 Reference value :  4.00483e-06
 Reference value :  4.00533e-06
 Reference value :  4.00666e-06
 Reference value :  4.00768e-06
 Reference value :  4.00848e-06
 Reference value :  4.00932e-06
 Reference value :  4.01017e-06
 Reference value :  4.01112e-06
 Reference value :  4.01191e-06
 Reference value :  4.01353e-06
 Reference value :  4.01529e-06
 Reference value :  4.01625e-06
 Reference value :  4.01882e-06
 Reference value :  4.02372e-06
 Reference value :  4.03730e-06
 Reference value :  4.05139e-06
 Reference value :  4.05449e-06
 Reference value :  4.06107e-06
 Reference value :  4.07310e-06
 Reference value :  4.09559e-06
 Reference value :  4.11350e-06
 Reference value :  4.18985e-06
 Reference value :  4.23665e-06
 Reference value :  4.25010e-06
 Reference value :  4.25013e-06
 Reference value :  4.25020e-06
 Reference value :  4.25022e-06
 Reference value :  4.25026e-06
 Reference value :  4.25032e-06
 Reference value :  4.25053e-06
 Reference value :  4.25096e-06
 Reference value :  4.25180e-06
 Reference value :  4.25291e-06
 Reference value :  4.25343e-06
 Reference value :  4.25402e-06
 Reference value :  4.25459e-06
 Reference value :  4.25603e-06
 Reference value :  4.25879e-06
 Reference value :  4.27262e-06
 Reference value :  4.28158e-06
 Reference value :  4.30293e-06
 Reference value :  4.37645e-06
 Reference value :  4.43593e-06
 Reference value :  4.50000e-06
 Reference value :  4.50003e-06
 Reference value :  4.50007e-06
 Reference value :  4.50011e-06
 Reference value :  4.50016e-06
 Reference value :  4.50035e-06
 Reference value :  4.50058e-06
 Reference value :  4.50090e-06
 Reference value :  4.50183e-06
 Reference value :  4.50283e-06
 Reference value :  4.50338e-06
 Reference value :  4.50459e-06
 Reference value :  4.50594e-06
 Reference value :  4.50747e-06
 Reference value :  4.50835e-06
 Reference value :  4.51026e-06
 Reference value :  4.51365e-06
 Reference value :  4.52247e-06
 Reference value :  4.54879e-06
 Reference value :  4.64798e-06
 Reference value :  4.75011e-06
 Reference value :  4.75017e-06
 Reference value :  4.75020e-06
 Reference value :  4.75022e-06
 Reference value :  4.75032e-06
 Reference value :  4.75053e-06
 Reference value :  4.75096e-06
 Reference value :  4.75140e-06
 Reference value :  4.75227e-06
 Reference value :  4.75290e-06
 Reference value :  4.75413e-06
 Reference value :  4.75469e-06
 Reference value :  4.75605e-06
 Reference value :  4.75687e-06
 Reference value :  4.75767e-06
 Reference value :  4.75996e-06
 Reference value :  4.76412e-06
 Reference value :  4.77622e-06
 Reference value :  4.82460e-06
 Reference value :  5.00000e-06
 Reference value :  5.00003e-06
 Reference value :  5.00010e-06
 Reference value :  5.00012e-06
 Reference value :  5.00022e-06
 Reference value :  5.00057e-06
 Reference value :  5.00136e-06
 Reference value :  5.00230e-06
 Reference value :  5.00281e-06
 Reference value :  5.00338e-06
 Reference value :  5.00393e-06
 Reference value :  5.00444e-06
 Reference value :  5.00490e-06
 Reference value :  5.00543e-06
 Reference value :  5.00689e-06
 Reference value :  5.00875e-06
 Reference value :  5.00961e-06
 Reference value :  5.01048e-06
 Reference value :  5.01212e-06
 Reference value :  5.01276e-06
 Reference value :  5.01356e-06
 Reference value :  5.01523e-06
 Reference value :  5.01619e-06
 Reference value :  5.01719e-06
 Reference value :  5.01884e-06
 Reference value :  5.02054e-06
 Reference value :  5.02304e-06
 Reference value :  5.02560e-06
 Reference value :  5.02747e-06
 Reference value :  5.03081e-06
 Reference value :  5.03273e-06
 Reference value :  5.03852e-06
 Reference value :  5.04319e-06
 Reference value :  5.05724e-06
 Reference value :  5.08947e-06
 Reference value :  5.16705e-06
 Reference value :  5.25011e-06
 Reference value :  5.25017e-06
 Reference value :  5.25021e-06
 Reference value :  5.25026e-06
 Reference value :  5.25032e-06
 Reference value :  5.25053e-06
 Reference value :  5.25069e-06
 Reference value :  5.25095e-06
 Reference value :  5.25178e-06
 Reference value :  5.25223e-06
 Reference value :  5.25285e-06
 Reference value :  5.25348e-06
 Reference value :  5.25404e-06
 Reference value :  5.25520e-06
 Reference value :  5.25711e-06
 Reference value :  5.26111e-06
 Reference value :  5.29081e-06
 Reference value :  5.32408e-06
 Reference value :  5.39060e-06
 Reference value :  5.50001e-06
 Reference value :  5.50007e-06
 Reference value :  5.50011e-06
 Reference value :  5.50012e-06
 Reference value :  5.50022e-06
 Reference value :  5.50035e-06
 Reference value :  5.50090e-06
 Reference value :  5.50136e-06
 Reference value :  5.50183e-06
 Reference value :  5.50281e-06
 Reference value :  5.50340e-06
 Reference value :  5.50395e-06
 Reference value :  5.50458e-06
 Reference value :  5.50536e-06
 Reference value :  5.50595e-06
 Reference value :  5.50662e-06
 Reference value :  5.50747e-06
 Reference value :  5.50835e-06
 Reference value :  5.50921e-06
 Reference value :  5.51025e-06
 Reference value :  5.51362e-06
 Reference value :  5.52249e-06
 Reference value :  5.54917e-06
 Reference value :  5.64982e-06
 Reference value :  5.75010e-06
 Reference value :  5.75013e-06
 Reference value :  5.75017e-06
 Reference value :  5.75020e-06
 Reference value :  5.75021e-06
 Reference value :  5.75026e-06
 Reference value :  5.75039e-06
 Reference value :  5.75053e-06
 Reference value :  5.75096e-06
 Reference value :  5.75140e-06
 Reference value :  5.75180e-06
 Reference value :  5.75290e-06
 Reference value :  5.75353e-06
 Reference value :  5.75414e-06
 Reference value :  5.75472e-06
 Reference value :  5.75532e-06
 Reference value :  5.75607e-06
 Reference value :  5.75857e-06
 Reference value :  5.76461e-06
 Reference value :  5.78748e-06
 Reference value :  5.87899e-06
 Reference value :  6.00001e-06
 Reference value :  6.00007e-06
 Reference value :  6.00010e-06
 Reference value :  6.00012e-06
 Reference value :  6.00016e-06
 Reference value :  6.00035e-06
 Reference value :  6.00057e-06
 Reference value :  6.00136e-06
 Reference value :  6.00183e-06
 Reference value :  6.00230e-06
 Reference value :  6.00281e-06
 Reference value :  6.00394e-06
 Reference value :  6.00445e-06
 Reference value :  6.00492e-06
 Reference value :  6.00617e-06
 Reference value :  6.00840e-06
 Reference value :  6.00990e-06
 Reference value :  6.01119e-06
 Reference value :  6.01226e-06
 Reference value :  6.01328e-06
 Reference value :  6.01435e-06
 Reference value :  6.01535e-06
 Reference value :  6.01754e-06
 Reference value :  6.02093e-06
 Reference value :  6.02419e-06
 Reference value :  6.02841e-06
 Reference value :  6.03329e-06
 Reference value :  6.03874e-06
 Reference value :  6.04256e-06
 Reference value :  6.04643e-06
 Reference value :  6.05084e-06
 Reference value :  6.05557e-06
 Reference value :  6.06221e-06
 Reference value :  6.08009e-06
 Reference value :  6.09303e-06
 Reference value :  6.10944e-06
 Reference value :  6.13815e-06
 Reference value :  6.17801e-06
 Reference value :  6.22301e-06
 Reference value :  6.24668e-06
 Reference value :  6.25011e-06
 Reference value :  6.25017e-06
 Reference value :  6.25021e-06
 Reference value :  6.25026e-06
 Reference value :  6.25039e-06
 Reference value :  6.25069e-06
 Reference value :  6.25136e-06
 Reference value :  6.25178e-06
 Reference value :  6.25284e-06
 Reference value :  6.25348e-06
 Reference value :  6.25405e-06
 Reference value :  6.25524e-06
 Reference value :  6.25719e-06
 Reference value :  6.26124e-06
 Reference value :  6.27465e-06
 Reference value :  6.32131e-06
 Reference value :  6.45970e-06
 Reference value :  6.50001e-06
 Reference value :  6.50007e-06
 Reference value :  6.50011e-06
 Reference value :  6.50016e-06
 Reference value :  6.50035e-06
 Reference value :  6.50090e-06
 Reference value :  6.50183e-06
 Reference value :  6.50230e-06
 Reference value :  6.50281e-06
 Reference value :  6.50339e-06
 Reference value :  6.50395e-06
 Reference value :  6.50458e-06
 Reference value :  6.50536e-06
 Reference value :  6.50594e-06
 Reference value :  6.50661e-06
 Reference value :  6.50746e-06
 Reference value :  6.50833e-06
 Reference value :  6.51023e-06
 Reference value :  6.51361e-06
 Reference value :  6.52253e-06
 Reference value :  6.54949e-06
 Reference value :  6.65126e-06
 Reference value :  6.75011e-06
 Reference value :  6.75017e-06
 Reference value :  6.75020e-06
 Reference value :  6.75022e-06
 Reference value :  6.75032e-06
 Reference value :  6.75053e-06
 Reference value :  6.75096e-06
 Reference value :  6.75140e-06
 Reference value :  6.75180e-06
 Reference value :  6.75290e-06
 Reference value :  6.75353e-06
 Reference value :  6.75414e-06
 Reference value :  6.75472e-06
 Reference value :  6.75531e-06
 Reference value :  6.75607e-06
 Reference value :  6.75856e-06
 Reference value :  6.76457e-06
 Reference value :  6.78735e-06
 Reference value :  6.87843e-06
 Reference value :  7.00000e-06
 Reference value :  7.00003e-06
 Reference value :  7.00010e-06
 Reference value :  7.00012e-06
 Reference value :  7.00022e-06
 Reference value :  7.00035e-06
 Reference value :  7.00090e-06
 Reference value :  7.00136e-06
 Reference value :  7.00183e-06
 Reference value :  7.00281e-06
 Reference value :  7.00339e-06
 Reference value :  7.00394e-06
 Reference value :  7.00445e-06
 Reference value :  7.00492e-06
 Reference value :  7.00545e-06
 Reference value :  7.00617e-06
 Reference value :  7.00840e-06
 Reference value :  7.00990e-06
 Reference value :  7.01119e-06
 Reference value :  7.01226e-06
 Reference value :  7.01435e-06
 Reference value :  7.01535e-06
 Reference value :  7.01639e-06
 Reference value :  7.01754e-06
 Reference value :  7.01919e-06
 Reference value :  7.02369e-06
 Reference value :  7.03199e-06
 Reference value :  7.03787e-06
 Reference value :  7.04178e-06
 Reference value :  7.04604e-06
 Reference value :  7.05144e-06
 Reference value :  7.06542e-06
 Reference value :  7.08712e-06
 Reference value :  7.11510e-06
 Reference value :  7.18135e-06
 Reference value :  7.25010e-06
 Reference value :  7.25011e-06
 Reference value :  7.25017e-06
 Reference value :  7.25021e-06
 Reference value :  7.25026e-06
 Reference value :  7.25039e-06
 Reference value :  7.25053e-06
 Reference value :  7.25095e-06
 Reference value :  7.25178e-06
 Reference value :  7.25223e-06
 Reference value :  7.25285e-06
 Reference value :  7.25346e-06
 Reference value :  7.25406e-06
 Reference value :  7.25468e-06
 Reference value :  7.25530e-06
 Reference value :  7.25743e-06
 Reference value :  7.26588e-06
 Reference value :  7.29153e-06
 Reference value :  7.39413e-06
 Reference value :  7.50000e-06
 Reference value :  7.50003e-06
 Reference value :  7.50010e-06
 Reference value :  7.50012e-06
 Reference value :  7.50016e-06
 Reference value :  7.50035e-06
 Reference value :  7.50090e-06
 Reference value :  7.50136e-06
 Reference value :  7.50183e-06
 Reference value :  7.50281e-06
 Reference value :  7.50336e-06
 Reference value :  7.50393e-06
 Reference value :  7.50455e-06
 Reference value :  7.50533e-06
 Reference value :  7.50589e-06
 Reference value :  7.50657e-06
 Reference value :  7.50749e-06
 Reference value :  7.50833e-06
 Reference value :  7.51032e-06
 Reference value :  7.51385e-06
 Reference value :  7.52335e-06
 Reference value :  7.55271e-06
 Reference value :  7.66387e-06
 Reference value :  7.75010e-06
 Reference value :  7.75013e-06
 Reference value :  7.75017e-06
 Reference value :  7.75021e-06
 Reference value :  7.75026e-06
 Reference value :  7.75032e-06
 Reference value :  7.75053e-06
 Reference value :  7.75096e-06
 Reference value :  7.75140e-06
 Reference value :  7.75180e-06
 Reference value :  7.75227e-06
 Reference value :  7.75290e-06
 Reference value :  7.75353e-06
 Reference value :  7.75413e-06
 Reference value :  7.75471e-06
 Reference value :  7.75530e-06
 Reference value :  7.75607e-06
 Reference value :  7.75689e-06
 Reference value :  7.75770e-06
 Reference value :  7.76002e-06
 Reference value :  7.76421e-06
 Reference value :  7.76834e-06
 Reference value :  7.79311e-06
 Reference value :  7.88992e-06
 Reference value :  8.00001e-06
 Reference value :  8.00003e-06
 Reference value :  8.00007e-06
 Reference value :  8.00010e-06
 Reference value :  8.00011e-06
 Reference value :  8.00012e-06
 Reference value :  8.00016e-06
 Reference value :  8.00022e-06
 Reference value :  8.00035e-06
 Reference value :  8.00057e-06
 Reference value :  8.00090e-06
 Reference value :  8.00136e-06
 Reference value :  8.00183e-06
 Reference value :  8.00230e-06
 Reference value :  8.00281e-06
 Reference value :  8.00338e-06
 Reference value :  8.00394e-06
 Reference value :  8.00492e-06
 Reference value :  8.00621e-06
 Reference value :  8.00693e-06
 Reference value :  8.00862e-06
 Reference value :  8.00944e-06
 Reference value :  8.01033e-06
 Reference value :  8.01129e-06
 Reference value :  8.01519e-06
 Reference value :  8.01729e-06
 Reference value :  8.02034e-06
 Reference value :  8.02397e-06
 Reference value :  8.02805e-06
 Reference value :  8.03064e-06
 Reference value :  8.03698e-06
 Reference value :  8.04619e-06
 Reference value :  8.05964e-06
 Reference value :  8.09367e-06
 Reference value :  8.17697e-06
 Reference value :  8.25011e-06
 Reference value :  8.25017e-06
 Reference value :  8.25021e-06
 Reference value :  8.25026e-06
 Reference value :  8.25045e-06
 Reference value :  8.25079e-06
 Reference value :  8.25160e-06
 Reference value :  8.25255e-06
 Reference value :  8.25326e-06
 Reference value :  8.25475e-06
 Reference value :  8.25669e-06
 Reference value :  8.26007e-06
 Reference value :  8.26764e-06
 Reference value :  8.28591e-06
 Reference value :  8.33620e-06
 Reference value :  8.50000e-06
 Reference value :  8.50003e-06
 Reference value :  8.50010e-06
 Reference value :  8.50012e-06
 Reference value :  8.50022e-06
 Reference value :  8.50059e-06
 Reference value :  8.50134e-06
 Reference value :  8.50227e-06
 Reference value :  8.50333e-06
 Reference value :  8.50435e-06
 Reference value :  8.50547e-06
 Reference value :  8.50734e-06
 Reference value :  8.51161e-06
 Reference value :  8.52145e-06
 Reference value :  8.52557e-06
 Reference value :  8.52851e-06
 Reference value :  8.53119e-06
 Reference value :  8.53332e-06
 Reference value :  8.53734e-06
 Reference value :  8.54191e-06
 Reference value :  8.54858e-06
 Reference value :  8.56014e-06
 Reference value :  8.58242e-06
 Reference value :  8.62829e-06
 Reference value :  8.73477e-06
 Reference value :  8.75011e-06
 Reference value :  8.75017e-06
 Reference value :  8.75020e-06
 Reference value :  8.75022e-06
 Reference value :  8.75032e-06
 Reference value :  8.75058e-06
 Reference value :  8.75129e-06
 Reference value :  8.75172e-06
 Reference value :  8.75277e-06
 Reference value :  8.75332e-06
 Reference value :  8.75452e-06
 Reference value :  8.75605e-06
 Reference value :  8.75870e-06
 Reference value :  8.76489e-06
 Reference value :  8.78603e-06
 Reference value :  8.97243e-06
No. of Data Rows : 1336
ngspice-44 done
