
Note: Compatibility modes selected: hs a


Circuit: ** sch_path: /home/ece/cace/sar-adc-using-sky130-pdk/runs/run_2025-09-13_01-19-26/parameters/dnl/run_3/sar_output_dnl.sch

option SCALE: Scale is set to 1e-06 for instance and model parameters
option SCALE: Scale is set to 1e-06 for instance and model parameters
option SCALE: Scale is set to 1e-06 for instance and model parameters
option SCALE: Scale is set to 1e-06 for instance and model parameters
Doing analysis at TEMP = 27.000000 and TNOM = 27.000000

Using KLU as Direct Linear Solver
Operating point simulation skipped by 'uic',
  now using transient initial conditions.
 Reference value :  1.00000e-12
 Reference value :  1.08400e-12
 Reference value :  1.72048e-12
 Reference value :  6.30382e-12
 Reference value :  2.07065e-11
 Reference value :  1.00000e-10
 Reference value :  1.85638e-10
 Reference value :  9.69729e-10
 Reference value :  2.48171e-09
 Reference value :  5.06377e-09
 Reference value :  6.80484e-09
 Reference value :  9.72874e-09
 Reference value :  1.25568e-08
 Reference value :  1.44140e-08
 Reference value :  1.82841e-08
 Reference value :  2.85222e-08
 Reference value :  5.35186e-08
 Reference value :  1.10771e-07
 Reference value :  1.21157e-07
 Reference value :  1.38005e-07
 Reference value :  1.76459e-07
 Reference value :  2.50130e-07
 Reference value :  2.50222e-07
 Reference value :  2.50539e-07
 Reference value :  2.51465e-07
 Reference value :  2.53681e-07
 Reference value :  2.56301e-07
 Reference value :  2.66984e-07
 Reference value :  5.00000e-07
 Reference value :  5.00070e-07
 Reference value :  5.00124e-07
 Reference value :  5.00348e-07
 Reference value :  5.00857e-07
 Reference value :  5.02030e-07
 Reference value :  5.04130e-07
 Reference value :  5.08639e-07
 Reference value :  5.12586e-07
 Reference value :  5.17966e-07
 Reference value :  5.33511e-07
 Reference value :  6.09953e-07
 Reference value :  7.50110e-07
 Reference value :  7.50200e-07
 Reference value :  7.50256e-07
 Reference value :  7.50703e-07
 Reference value :  7.52040e-07
 Reference value :  7.53261e-07
 Reference value :  7.53780e-07
 Reference value :  7.54923e-07
 Reference value :  7.56264e-07
 Reference value :  7.57938e-07
 Reference value :  7.60510e-07
 Reference value :  7.68226e-07
 Reference value :  8.60851e-07
 Reference value :  1.00001e-06
 Reference value :  1.00010e-06
 Reference value :  1.00016e-06
 Reference value :  1.00054e-06
 Reference value :  1.00119e-06
 Reference value :  1.00209e-06
 Reference value :  1.00308e-06
 Reference value :  1.00419e-06
 Reference value :  1.00519e-06
 Reference value :  1.00640e-06
 Reference value :  1.00807e-06
 Reference value :  1.01010e-06
 Reference value :  1.01198e-06
 Reference value :  1.01373e-06
 Reference value :  1.01530e-06
 Reference value :  1.01713e-06
 Reference value :  1.01916e-06
 Reference value :  1.02599e-06
 Reference value :  1.09474e-06
 Reference value :  1.25011e-06
 Reference value :  1.25020e-06
 Reference value :  1.25032e-06
 Reference value :  1.25110e-06
 Reference value :  1.25203e-06
 Reference value :  1.25325e-06
 Reference value :  1.25377e-06
 Reference value :  1.25509e-06
 Reference value :  1.25816e-06
 Reference value :  1.27331e-06
 Reference value :  1.50000e-06
 Reference value :  1.50010e-06
 Reference value :  1.50016e-06
 Reference value :  1.50054e-06
 Reference value :  1.50119e-06
 Reference value :  1.50203e-06
 Reference value :  1.50300e-06
 Reference value :  1.50488e-06
 Reference value :  1.50624e-06
 Reference value :  1.50794e-06
 Reference value :  1.50985e-06
 Reference value :  1.51451e-06
 Reference value :  1.56940e-06
 Reference value :  1.75011e-06
 Reference value :  1.75021e-06
 Reference value :  1.75070e-06
 Reference value :  1.75203e-06
 Reference value :  1.75378e-06
 Reference value :  1.75491e-06
 Reference value :  1.75624e-06
 Reference value :  1.75891e-06
 Reference value :  1.76495e-06
 Reference value :  1.80546e-06
 Reference value :  2.00000e-06
 Reference value :  2.00007e-06
 Reference value :  2.00012e-06
 Reference value :  2.00035e-06
 Reference value :  2.00086e-06
 Reference value :  2.00163e-06
 Reference value :  2.00308e-06
 Reference value :  2.00470e-06
 Reference value :  2.00574e-06
 Reference value :  2.00807e-06
 Reference value :  2.01010e-06
 Reference value :  2.01197e-06
 Reference value :  2.01371e-06
 Reference value :  2.01527e-06
 Reference value :  2.01806e-06
 Reference value :  2.02599e-06
 Reference value :  2.08464e-06
 Reference value :  2.11600e-06
 Reference value :  2.14065e-06
 Reference value :  2.15620e-06
 Reference value :  2.18598e-06
 Reference value :  2.21419e-06
 Reference value :  2.25011e-06
 Reference value :  2.25020e-06
 Reference value :  2.25026e-06
 Reference value :  2.25070e-06
 Reference value :  2.25203e-06
 Reference value :  2.25324e-06
 Reference value :  2.25438e-06
 Reference value :  2.25647e-06
 Reference value :  2.26587e-06
 Reference value :  2.36569e-06
 Reference value :  2.50003e-06
 Reference value :  2.50012e-06
 Reference value :  2.50035e-06
 Reference value :  2.50086e-06
 Reference value :  2.50163e-06
 Reference value :  2.50307e-06
 Reference value :  2.50488e-06
 Reference value :  2.50630e-06
 Reference value :  2.50794e-06
 Reference value :  2.51093e-06
 Reference value :  2.52660e-06
 Reference value :  2.75010e-06
 Reference value :  2.75017e-06
 Reference value :  2.75026e-06
 Reference value :  2.75110e-06
 Reference value :  2.75203e-06
 Reference value :  2.75377e-06
 Reference value :  2.75491e-06
 Reference value :  2.75636e-06
 Reference value :  2.76129e-06
 Reference value :  2.80372e-06
 Reference value :  3.00001e-06
 Reference value :  3.00010e-06
 Reference value :  3.00016e-06
 Reference value :  3.00086e-06
 Reference value :  3.00163e-06
 Reference value :  3.00307e-06
 Reference value :  3.00473e-06
 Reference value :  3.00580e-06
 Reference value :  3.01029e-06
 Reference value :  3.01454e-06
 Reference value :  3.01647e-06
 Reference value :  3.01985e-06
 Reference value :  3.03915e-06
 Reference value :  3.06643e-06
 Reference value :  3.08277e-06
 Reference value :  3.10472e-06
 Reference value :  3.13117e-06
 Reference value :  3.19487e-06
 Reference value :  3.23180e-06
 Reference value :  3.25011e-06
 Reference value :  3.25022e-06
 Reference value :  3.25109e-06
 Reference value :  3.25324e-06
 Reference value :  3.25438e-06
 Reference value :  3.25647e-06
 Reference value :  3.27255e-06
 Reference value :  3.50000e-06
 Reference value :  3.50010e-06
 Reference value :  3.50035e-06
 Reference value :  3.50119e-06
 Reference value :  3.50307e-06
 Reference value :  3.50569e-06
 Reference value :  3.50702e-06
 Reference value :  3.50890e-06
 Reference value :  3.51209e-06
 Reference value :  3.57203e-06
 Reference value :  3.75013e-06
 Reference value :  3.75022e-06
 Reference value :  3.75109e-06
 Reference value :  3.75324e-06
 Reference value :  3.75490e-06
 Reference value :  3.75900e-06
 Reference value :  3.84733e-06
 Reference value :  4.00007e-06
 Reference value :  4.00022e-06
 Reference value :  4.00119e-06
 Reference value :  4.00307e-06
 Reference value :  4.00524e-06
 Reference value :  4.00866e-06
 Reference value :  4.01187e-06
 Reference value :  4.01454e-06
 Reference value :  4.01647e-06
 Reference value :  4.01986e-06
 Reference value :  4.03606e-06
 Reference value :  4.05192e-06
 Reference value :  4.06984e-06
 Reference value :  4.16673e-06
 Reference value :  4.25017e-06
 Reference value :  4.25045e-06
 Reference value :  4.25203e-06
 Reference value :  4.25375e-06
 Reference value :  4.25966e-06
 Reference value :  4.36577e-06
 Reference value :  4.50001e-06
 Reference value :  4.50010e-06
 Reference value :  4.50016e-06
 Reference value :  4.50035e-06
 Reference value :  4.50086e-06
 Reference value :  4.50159e-06
 Reference value :  4.50251e-06
 Reference value :  4.50300e-06
 Reference value :  4.50411e-06
 Reference value :  4.50562e-06
 Reference value :  4.50625e-06
 Reference value :  4.50795e-06
 Reference value :  4.50887e-06
 Reference value :  4.51112e-06
 Reference value :  4.51451e-06
 Reference value :  4.52615e-06
 Reference value :  4.56883e-06
 Reference value :  4.73954e-06
 Reference value :  4.75011e-06
 Reference value :  4.75020e-06
 Reference value :  4.75026e-06
 Reference value :  4.75070e-06
 Reference value :  4.75203e-06
 Reference value :  4.75324e-06
 Reference value :  4.75436e-06
 Reference value :  4.75623e-06
 Reference value :  4.75889e-06
 Reference value :  4.76794e-06
 Reference value :  4.83747e-06
 Reference value :  5.00003e-06
 Reference value :  5.00011e-06
 Reference value :  5.00022e-06
 Reference value :  5.00086e-06
 Reference value :  5.00209e-06
 Reference value :  5.00308e-06
 Reference value :  5.00419e-06
 Reference value :  5.00519e-06
 Reference value :  5.00640e-06
 Reference value :  5.00807e-06
 Reference value :  5.01010e-06
 Reference value :  5.01197e-06
 Reference value :  5.01370e-06
 Reference value :  5.01525e-06
 Reference value :  5.01801e-06
 Reference value :  5.02256e-06
 Reference value :  5.03970e-06
 Reference value :  5.05502e-06
 Reference value :  5.07091e-06
 Reference value :  5.08593e-06
 Reference value :  5.11942e-06
 Reference value :  5.25010e-06
 Reference value :  5.25017e-06
 Reference value :  5.25022e-06
 Reference value :  5.25045e-06
 Reference value :  5.25156e-06
 Reference value :  5.25251e-06
 Reference value :  5.25376e-06
 Reference value :  5.25499e-06
 Reference value :  5.25796e-06
 Reference value :  5.26560e-06
 Reference value :  5.31061e-06
 Reference value :  5.50000e-06
 Reference value :  5.50007e-06
 Reference value :  5.50012e-06
 Reference value :  5.50035e-06
 Reference value :  5.50086e-06
 Reference value :  5.50159e-06
 Reference value :  5.50251e-06
 Reference value :  5.50300e-06
 Reference value :  5.50488e-06
 Reference value :  5.50625e-06
 Reference value :  5.50795e-06
 Reference value :  5.50986e-06
 Reference value :  5.51224e-06
 Reference value :  5.52622e-06
 Reference value :  5.62627e-06
 Reference value :  5.75013e-06
 Reference value :  5.75021e-06
 Reference value :  5.75032e-06
 Reference value :  5.75109e-06
 Reference value :  5.75203e-06
 Reference value :  5.75377e-06
 Reference value :  5.75548e-06
 Reference value :  5.75785e-06
 Reference value :  5.76793e-06
 Reference value :  6.00000e-06
 Reference value :  6.00010e-06
 Reference value :  6.00016e-06
 Reference value :  6.00054e-06
 Reference value :  6.00163e-06
 Reference value :  6.00308e-06
 Reference value :  6.00471e-06
 Reference value :  6.00711e-06
 Reference value :  6.01010e-06
 Reference value :  6.01196e-06
 Reference value :  6.01369e-06
 Reference value :  6.01533e-06
 Reference value :  6.01719e-06
 Reference value :  6.01929e-06
 Reference value :  6.02308e-06
 Reference value :  6.03162e-06
 Reference value :  6.04201e-06
 Reference value :  6.05606e-06
 Reference value :  6.07594e-06
 Reference value :  6.09930e-06
 Reference value :  6.14228e-06
 Reference value :  6.21770e-06
 Reference value :  6.25011e-06
 Reference value :  6.25017e-06
 Reference value :  6.25020e-06
 Reference value :  6.25022e-06
 Reference value :  6.25026e-06
 Reference value :  6.25032e-06
 Reference value :  6.25070e-06
 Reference value :  6.25109e-06
 Reference value :  6.25202e-06
 Reference value :  6.25251e-06
 Reference value :  6.25323e-06
 Reference value :  6.25377e-06
 Reference value :  6.25501e-06
 Reference value :  6.25803e-06
 Reference value :  6.26580e-06
 Reference value :  6.31177e-06
 Reference value :  6.50000e-06
 Reference value :  6.50007e-06
 Reference value :  6.50012e-06
 Reference value :  6.50035e-06
 Reference value :  6.50086e-06
 Reference value :  6.50163e-06
 Reference value :  6.50258e-06
 Reference value :  6.50307e-06
 Reference value :  6.50418e-06
 Reference value :  6.50568e-06
 Reference value :  6.50630e-06
 Reference value :  6.50794e-06
 Reference value :  6.50982e-06
 Reference value :  6.51210e-06
 Reference value :  6.52651e-06
 Reference value :  6.63207e-06
 Reference value :  6.75011e-06
 Reference value :  6.75017e-06
 Reference value :  6.75021e-06
 Reference value :  6.75026e-06
 Reference value :  6.75045e-06
 Reference value :  6.75109e-06
 Reference value :  6.75202e-06
 Reference value :  6.75324e-06
 Reference value :  6.75376e-06
 Reference value :  6.75490e-06
 Reference value :  6.75634e-06
 Reference value :  6.75898e-06
 Reference value :  6.76995e-06
 Reference value :  6.80294e-06
 Reference value :  6.93489e-06
 Reference value :  7.00001e-06
 Reference value :  7.00010e-06
 Reference value :  7.00016e-06
 Reference value :  7.00035e-06
 Reference value :  7.00086e-06
 Reference value :  7.00163e-06
 Reference value :  7.00307e-06
 Reference value :  7.00473e-06
 Reference value :  7.00580e-06
 Reference value :  7.00866e-06
 Reference value :  7.01029e-06
 Reference value :  7.01341e-06
 Reference value :  7.01557e-06
 Reference value :  7.01649e-06
 Reference value :  7.01869e-06
 Reference value :  7.02190e-06
 Reference value :  7.02951e-06
 Reference value :  7.03479e-06
 Reference value :  7.03860e-06
 Reference value :  7.04682e-06
 Reference value :  7.06627e-06
 Reference value :  7.09683e-06
 Reference value :  7.20415e-06
 Reference value :  7.25017e-06
 Reference value :  7.25026e-06
 Reference value :  7.25070e-06
 Reference value :  7.25156e-06
 Reference value :  7.25251e-06
 Reference value :  7.25375e-06
 Reference value :  7.25502e-06
 Reference value :  7.25803e-06
 Reference value :  7.26588e-06
 Reference value :  7.31251e-06
 Reference value :  7.50000e-06
 Reference value :  7.50007e-06
 Reference value :  7.50012e-06
 Reference value :  7.50035e-06
 Reference value :  7.50086e-06
 Reference value :  7.50159e-06
 Reference value :  7.50300e-06
 Reference value :  7.50411e-06
 Reference value :  7.50562e-06
 Reference value :  7.50625e-06
 Reference value :  7.50795e-06
 Reference value :  7.50986e-06
 Reference value :  7.51451e-06
 Reference value :  7.56880e-06
 Reference value :  7.75010e-06
 Reference value :  7.75013e-06
 Reference value :  7.75021e-06
 Reference value :  7.75032e-06
 Reference value :  7.75109e-06
 Reference value :  7.75202e-06
 Reference value :  7.75323e-06
 Reference value :  7.75435e-06
 Reference value :  7.75548e-06
 Reference value :  7.75704e-06
 Reference value :  7.76038e-06
 Reference value :  7.76787e-06
 Reference value :  7.83455e-06
 Reference value :  8.00001e-06
 Reference value :  8.00010e-06
 Reference value :  8.00016e-06
 Reference value :  8.00035e-06
 Reference value :  8.00086e-06
 Reference value :  8.00163e-06
 Reference value :  8.00258e-06
 Reference value :  8.00308e-06
 Reference value :  8.00415e-06
 Reference value :  8.00515e-06
 Reference value :  8.00631e-06
 Reference value :  8.00773e-06
 Reference value :  8.00930e-06
 Reference value :  8.01087e-06
 Reference value :  8.01368e-06
 Reference value :  8.01698e-06
 Reference value :  8.03507e-06
 Reference value :  8.17710e-06
 Reference value :  8.25010e-06
 Reference value :  8.25017e-06
 Reference value :  8.25022e-06
 Reference value :  8.25045e-06
 Reference value :  8.25109e-06
 Reference value :  8.25202e-06
 Reference value :  8.25324e-06
 Reference value :  8.25576e-06
 Reference value :  8.26014e-06
 Reference value :  8.28931e-06
 Reference value :  8.42578e-06
 Reference value :  8.50000e-06
 Reference value :  8.50000e-06
 Reference value :  8.50001e-06
 Reference value :  8.50008e-06
 Reference value :  8.50012e-06
 Reference value :  8.50027e-06
 Reference value :  8.50118e-06
 Reference value :  8.50204e-06
 Reference value :  8.50306e-06
 Reference value :  8.50415e-06
 Reference value :  8.50518e-06
 Reference value :  8.50651e-06
 Reference value :  8.51229e-06
 Reference value :  8.52285e-06
 Reference value :  8.52894e-06
 Reference value :  8.53319e-06
 Reference value :  8.53779e-06
 Reference value :  8.54144e-06
 Reference value :  8.55127e-06
 Reference value :  8.56117e-06
 Reference value :  8.59349e-06
 Reference value :  8.63876e-06
 Reference value :  8.69390e-06
 Reference value :  8.71340e-06
 Reference value :  8.72780e-06
 Reference value :  8.73920e-06
 Reference value :  8.74864e-06
 Reference value :  8.75011e-06
 Reference value :  8.75020e-06
 Reference value :  8.75026e-06
 Reference value :  8.75045e-06
 Reference value :  8.75109e-06
 Reference value :  8.75202e-06
 Reference value :  8.75322e-06
 Reference value :  8.75373e-06
 Reference value :  8.75501e-06
 Reference value :  8.75803e-06
 Reference value :  8.76588e-06
 Reference value :  8.81259e-06
 Reference value :  9.00000e-06
 Reference value :  9.00003e-06
 Reference value :  9.00010e-06
 Reference value :  9.00016e-06
 Reference value :  9.00086e-06
 Reference value :  9.00204e-06
 Reference value :  9.00300e-06
 Reference value :  9.00410e-06
 Reference value :  9.00704e-06
 Reference value :  9.00988e-06
 Reference value :  9.01260e-06
 Reference value :  9.01606e-06
 Reference value :  9.02560e-06
 Reference value :  9.07389e-06
 Reference value :  9.25010e-06
 Reference value :  9.25013e-06
 Reference value :  9.25020e-06
 Reference value :  9.25026e-06
 Reference value :  9.25045e-06
 Reference value :  9.25156e-06
 Reference value :  9.25251e-06
 Reference value :  9.25375e-06
 Reference value :  9.25488e-06
 Reference value :  9.25620e-06
 Reference value :  9.25756e-06
 Reference value :  9.25938e-06
 Reference value :  9.26547e-06
 Reference value :  9.29558e-06
 Reference value :  9.44391e-06
 Reference value :  9.50010e-06
 Reference value :  9.50035e-06
 Reference value :  9.50086e-06
 Reference value :  9.50163e-06
 Reference value :  9.50308e-06
 Reference value :  9.50419e-06
 Reference value :  9.50520e-06
 Reference value :  9.50641e-06
 Reference value :  9.50808e-06
 Reference value :  9.51011e-06
 Reference value :  9.51199e-06
 Reference value :  9.51372e-06
 Reference value :  9.51528e-06
 Reference value :  9.51712e-06
 Reference value :  9.51912e-06
 Reference value :  9.52582e-06
 Reference value :  9.55755e-06
 Reference value :  9.70864e-06
 Reference value :  9.75013e-06
 Reference value :  9.75021e-06
 Reference value :  9.75026e-06
 Reference value :  9.75045e-06
 Reference value :  9.75109e-06
 Reference value :  9.75202e-06
 Reference value :  9.75323e-06
 Reference value :  9.75435e-06
 Reference value :  9.75641e-06
 Reference value :  9.76558e-06
 Reference value :  9.86159e-06
 Reference value :  1.00000e-05
 Reference value :  1.00001e-05
 Reference value :  1.00001e-05
 Reference value :  1.00002e-05
 Reference value :  1.00003e-05
 Reference value :  1.00009e-05
 Reference value :  1.00016e-05
 Reference value :  1.00025e-05
 Reference value :  1.00036e-05
 Reference value :  1.00056e-05
 Reference value :  1.00062e-05
 Reference value :  1.00079e-05
 Reference value :  1.00099e-05
 Reference value :  1.00122e-05
 Reference value :  1.00262e-05
 Reference value :  1.01262e-05
 Reference value :  1.02501e-05
 Reference value :  1.02502e-05
 Reference value :  1.02502e-05
 Reference value :  1.02503e-05
 Reference value :  1.02507e-05
 Reference value :  1.02511e-05
 Reference value :  1.02516e-05
 Reference value :  1.02520e-05
 Reference value :  1.02532e-05
 Reference value :  1.02538e-05
 Reference value :  1.02549e-05
 Reference value :  1.02562e-05
 Reference value :  1.02589e-05
 Reference value :  1.02621e-05
 Reference value :  1.02679e-05
 Reference value :  1.02844e-05
 Reference value :  1.03359e-05
 Reference value :  1.05000e-05
 Reference value :  1.05000e-05
 Reference value :  1.05001e-05
 Reference value :  1.05002e-05
 Reference value :  1.05009e-05
 Reference value :  1.05016e-05
 Reference value :  1.05026e-05
 Reference value :  1.05036e-05
 Reference value :  1.05047e-05
 Reference value :  1.05052e-05
 Reference value :  1.05064e-05
 Reference value :  1.05081e-05
 Reference value :  1.05101e-05
 Reference value :  1.05120e-05
 Reference value :  1.05137e-05
 Reference value :  1.05153e-05
 Reference value :  1.05181e-05
 Reference value :  1.05226e-05
 Reference value :  1.05393e-05
 Reference value :  1.05791e-05
 Reference value :  1.06400e-05
 Reference value :  1.06565e-05
 Reference value :  1.06876e-05
 Reference value :  1.07177e-05
 Reference value :  1.07501e-05
 Reference value :  1.07502e-05
 Reference value :  1.07503e-05
 Reference value :  1.07511e-05
 Reference value :  1.07520e-05
 Reference value :  1.07538e-05
 Reference value :  1.07550e-05
 Reference value :  1.07580e-05
 Reference value :  1.07723e-05
 Reference value :  1.09564e-05
 Reference value :  1.10000e-05
 Reference value :  1.10001e-05
 Reference value :  1.10002e-05
 Reference value :  1.10009e-05
 Reference value :  1.10021e-05
 Reference value :  1.10031e-05
 Reference value :  1.10042e-05
 Reference value :  1.10057e-05
 Reference value :  1.10063e-05
 Reference value :  1.10079e-05
 Reference value :  1.10098e-05
 Reference value :  1.10121e-05
 Reference value :  1.10265e-05
 Reference value :  1.11319e-05
 Reference value :  1.12501e-05
 Reference value :  1.12502e-05
 Reference value :  1.12502e-05
 Reference value :  1.12504e-05
 Reference value :  1.12516e-05
 Reference value :  1.12532e-05
 Reference value :  1.12544e-05
 Reference value :  1.12563e-05
 Reference value :  1.12645e-05
 Reference value :  1.13471e-05
 Reference value :  1.15000e-05
 Reference value :  1.15001e-05
 Reference value :  1.15005e-05
 Reference value :  1.15016e-05
 Reference value :  1.15031e-05
 Reference value :  1.15047e-05
 Reference value :  1.15065e-05
 Reference value :  1.15103e-05
 Reference value :  1.15145e-05
 Reference value :  1.15176e-05
 Reference value :  1.15242e-05
 Reference value :  1.15863e-05
 Reference value :  1.16090e-05
 Reference value :  1.16353e-05
 Reference value :  1.16757e-05
 Reference value :  1.17108e-05
 Reference value :  1.17239e-05
 Reference value :  1.17383e-05
 Reference value :  1.17502e-05
 Reference value :  1.17503e-05
 Reference value :  1.17511e-05
 Reference value :  1.17520e-05
 Reference value :  1.17538e-05
 Reference value :  1.17550e-05
 Reference value :  1.17580e-05
 Reference value :  1.17724e-05
 Reference value :  1.18646e-05
 Reference value :  1.20000e-05
 Reference value :  1.20001e-05
 Reference value :  1.20002e-05
 Reference value :  1.20009e-05
 Reference value :  1.20016e-05
 Reference value :  1.20031e-05
 Reference value :  1.20042e-05
 Reference value :  1.20057e-05
 Reference value :  1.20070e-05
 Reference value :  1.20079e-05
 Reference value :  1.20111e-05
 Reference value :  1.20261e-05
 Reference value :  1.22417e-05
 Reference value :  1.22501e-05
 Reference value :  1.22502e-05
 Reference value :  1.22504e-05
 Reference value :  1.22516e-05
 Reference value :  1.22525e-05
 Reference value :  1.22538e-05
 Reference value :  1.22549e-05
 Reference value :  1.22572e-05
 Reference value :  1.22700e-05
 Reference value :  1.24360e-05
 Reference value :  1.25001e-05
 Reference value :  1.25002e-05
 Reference value :  1.25005e-05
 Reference value :  1.25012e-05
 Reference value :  1.25021e-05
 Reference value :  1.25031e-05
 Reference value :  1.25047e-05
 Reference value :  1.25058e-05
 Reference value :  1.25087e-05
 Reference value :  1.25119e-05
 Reference value :  1.25145e-05
 Reference value :  1.25165e-05
 Reference value :  1.25199e-05
 Reference value :  1.25356e-05
 Reference value :  1.25523e-05
 Reference value :  1.25657e-05
 Reference value :  1.25832e-05
 Reference value :  1.26730e-05
 Reference value :  1.27501e-05
 Reference value :  1.27502e-05
 Reference value :  1.27507e-05
 Reference value :  1.27520e-05
 Reference value :  1.27537e-05
 Reference value :  1.27565e-05
 Reference value :  1.27659e-05
 Reference value :  1.28659e-05
 Reference value :  1.30000e-05
 Reference value :  1.30001e-05
 Reference value :  1.30002e-05
 Reference value :  1.30005e-05
 Reference value :  1.30016e-05
 Reference value :  1.30030e-05
 Reference value :  1.30049e-05
 Reference value :  1.30062e-05
 Reference value :  1.30089e-05
 Reference value :  1.30145e-05
 Reference value :  1.31256e-05
 Reference value :  1.32501e-05
 Reference value :  1.32502e-05
 Reference value :  1.32507e-05
 Reference value :  1.32520e-05
 Reference value :  1.32532e-05
 Reference value :  1.32544e-05
 Reference value :  1.32555e-05
 Reference value :  1.32570e-05
 Reference value :  1.32604e-05
 Reference value :  1.32742e-05
 Reference value :  1.34048e-05
 Reference value :  1.35000e-05
 Reference value :  1.35001e-05
 Reference value :  1.35002e-05
 Reference value :  1.35009e-05
 Reference value :  1.35016e-05
 Reference value :  1.35031e-05
 Reference value :  1.35042e-05
 Reference value :  1.35052e-05
 Reference value :  1.35071e-05
 Reference value :  1.35081e-05
 Reference value :  1.35101e-05
 Reference value :  1.35110e-05
 Reference value :  1.35120e-05
 Reference value :  1.35137e-05
 Reference value :  1.35152e-05
 Reference value :  1.35170e-05
 Reference value :  1.35190e-05
 Reference value :  1.35255e-05
 Reference value :  1.35463e-05
 Reference value :  1.35620e-05
 Reference value :  1.35901e-05
 Reference value :  1.36145e-05
 Reference value :  1.36559e-05
 Reference value :  1.37501e-05
 Reference value :  1.37502e-05
 Reference value :  1.37503e-05
 Reference value :  1.37511e-05
 Reference value :  1.37520e-05
 Reference value :  1.37538e-05
 Reference value :  1.37550e-05
 Reference value :  1.37580e-05
 Reference value :  1.37848e-05
 Reference value :  1.40000e-05
 Reference value :  1.40001e-05
 Reference value :  1.40002e-05
 Reference value :  1.40009e-05
 Reference value :  1.40016e-05
 Reference value :  1.40025e-05
 Reference value :  1.40036e-05
 Reference value :  1.40056e-05
 Reference value :  1.40062e-05
 Reference value :  1.40079e-05
 Reference value :  1.40111e-05
 Reference value :  1.40262e-05
 Reference value :  1.41262e-05
 Reference value :  1.42501e-05
 Reference value :  1.42502e-05
 Reference value :  1.42504e-05
 Reference value :  1.42520e-05
 Reference value :  1.42538e-05
 Reference value :  1.42549e-05
 Reference value :  1.42570e-05
 Reference value :  1.42604e-05
 Reference value :  1.42845e-05
 Reference value :  1.45000e-05
 Reference value :  1.45002e-05
 Reference value :  1.45009e-05
 Reference value :  1.45021e-05
 Reference value :  1.45036e-05
 Reference value :  1.45052e-05
 Reference value :  1.45071e-05
 Reference value :  1.45092e-05
 Reference value :  1.45101e-05
 Reference value :  1.45120e-05
 Reference value :  1.45137e-05
 Reference value :  1.45162e-05
 Reference value :  1.45192e-05
 Reference value :  1.45313e-05
 Reference value :  1.45532e-05
 Reference value :  1.45673e-05
 Reference value :  1.46053e-05
 Reference value :  1.47501e-05
 Reference value :  1.47502e-05
 Reference value :  1.47503e-05
 Reference value :  1.47516e-05
 Reference value :  1.47525e-05
 Reference value :  1.47538e-05
 Reference value :  1.47550e-05
 Reference value :  1.47580e-05
 Reference value :  1.47723e-05
 Reference value :  1.48641e-05
 Reference value :  1.50000e-05
 Reference value :  1.50000e-05
 Reference value :  1.50001e-05
 Reference value :  1.50002e-05
 Reference value :  1.50005e-05
 Reference value :  1.50009e-05
 Reference value :  1.50016e-05
 Reference value :  1.50026e-05
 Reference value :  1.50031e-05
 Reference value :  1.50042e-05
 Reference value :  1.50057e-05
 Reference value :  1.50063e-05
 Reference value :  1.50079e-05
 Reference value :  1.50098e-05
 Reference value :  1.50121e-05
 Reference value :  1.50416e-05
 Reference value :  1.52501e-05
 Reference value :  1.52502e-05
 Reference value :  1.52502e-05
 Reference value :  1.52504e-05
 Reference value :  1.52516e-05
 Reference value :  1.52525e-05
 Reference value :  1.52538e-05
 Reference value :  1.52549e-05
 Reference value :  1.52563e-05
 Reference value :  1.52590e-05
 Reference value :  1.52700e-05
 Reference value :  1.53471e-05
 Reference value :  1.55012e-05
 Reference value :  1.55035e-05
 Reference value :  1.55047e-05
 Reference value :  1.55067e-05
 Reference value :  1.55090e-05
 Reference value :  1.55118e-05
 Reference value :  1.55130e-05
 Reference value :  1.55141e-05
 Reference value :  1.55164e-05
 Reference value :  1.55185e-05
 Reference value :  1.55259e-05
 Reference value :  1.55439e-05
 Reference value :  1.55532e-05
 Reference value :  1.55657e-05
 Reference value :  1.55993e-05
 Reference value :  1.56588e-05
 Reference value :  1.57501e-05
 Reference value :  1.57502e-05
 Reference value :  1.57503e-05
 Reference value :  1.57507e-05
 Reference value :  1.57520e-05
 Reference value :  1.57531e-05
 Reference value :  1.57536e-05
 Reference value :  1.57548e-05
 Reference value :  1.57562e-05
 Reference value :  1.57613e-05
 Reference value :  1.57820e-05
 Reference value :  1.59205e-05
 Reference value :  1.60000e-05
 Reference value :  1.60001e-05
 Reference value :  1.60002e-05
 Reference value :  1.60009e-05
 Reference value :  1.60020e-05
 Reference value :  1.60030e-05
 Reference value :  1.60041e-05
 Reference value :  1.60056e-05
 Reference value :  1.60062e-05
 Reference value :  1.60079e-05
 Reference value :  1.60099e-05
 Reference value :  1.60145e-05
 Reference value :  1.60690e-05
 Reference value :  1.62501e-05
 Reference value :  1.62502e-05
 Reference value :  1.62503e-05
 Reference value :  1.62504e-05
 Reference value :  1.62511e-05
 Reference value :  1.62520e-05
 Reference value :  1.62532e-05
 Reference value :  1.62538e-05
 Reference value :  1.62549e-05
 Reference value :  1.62562e-05
 Reference value :  1.62578e-05
 Reference value :  1.62604e-05
 Reference value :  1.62647e-05
 Reference value :  1.62842e-05
 Reference value :  1.64014e-05
 Reference value :  1.65000e-05
 Reference value :  1.65001e-05
 Reference value :  1.65002e-05
 Reference value :  1.65009e-05
 Reference value :  1.65016e-05
 Reference value :  1.65031e-05
 Reference value :  1.65041e-05
 Reference value :  1.65052e-05
 Reference value :  1.65063e-05
 Reference value :  1.65077e-05
 Reference value :  1.65093e-05
 Reference value :  1.65109e-05
 Reference value :  1.65137e-05
 Reference value :  1.65170e-05
 Reference value :  1.65214e-05
 Reference value :  1.65328e-05
 Reference value :  1.65552e-05
 Reference value :  1.65697e-05
 Reference value :  1.65863e-05
 Reference value :  1.66083e-05
 Reference value :  1.66685e-05
 Reference value :  1.67501e-05
 Reference value :  1.67501e-05
 Reference value :  1.67502e-05
 Reference value :  1.67503e-05
 Reference value :  1.67504e-05
 Reference value :  1.67511e-05
 Reference value :  1.67520e-05
 Reference value :  1.67532e-05
 Reference value :  1.67548e-05
 Reference value :  1.67568e-05
 Reference value :  1.67584e-05
 Reference value :  1.67668e-05
 Reference value :  1.68191e-05
 Reference value :  1.70000e-05
 Reference value :  1.70000e-05
 Reference value :  1.70000e-05
 Reference value :  1.70000e-05
 Reference value :  1.70001e-05
 Reference value :  1.70001e-05
 Reference value :  1.70003e-05
 Reference value :  1.70012e-05
 Reference value :  1.70020e-05
 Reference value :  1.70031e-05
 Reference value :  1.70036e-05
 Reference value :  1.70046e-05
 Reference value :  1.70058e-05
 Reference value :  1.70095e-05
 Reference value :  1.70229e-05
 Reference value :  1.70290e-05
 Reference value :  1.70332e-05
 Reference value :  1.70387e-05
 Reference value :  1.70460e-05
 Reference value :  1.70525e-05
 Reference value :  1.70654e-05
 Reference value :  1.70939e-05
 Reference value :  1.71378e-05
 Reference value :  1.72221e-05
 Reference value :  1.72356e-05
 Reference value :  1.72501e-05
 Reference value :  1.72502e-05
 Reference value :  1.72503e-05
 Reference value :  1.72507e-05
 Reference value :  1.72516e-05
 Reference value :  1.72525e-05
 Reference value :  1.72537e-05
 Reference value :  1.72550e-05
 Reference value :  1.72581e-05
 Reference value :  1.72659e-05
 Reference value :  1.73662e-05
 Reference value :  1.75000e-05
 Reference value :  1.75001e-05
 Reference value :  1.75003e-05
 Reference value :  1.75009e-05
 Reference value :  1.75016e-05
 Reference value :  1.75025e-05
 Reference value :  1.75036e-05
 Reference value :  1.75056e-05
 Reference value :  1.75086e-05
 Reference value :  1.75099e-05
 Reference value :  1.75126e-05
 Reference value :  1.75178e-05
 Reference value :  1.75748e-05
 Reference value :  1.77501e-05
 Reference value :  1.77502e-05
 Reference value :  1.77503e-05
 Reference value :  1.77507e-05
 Reference value :  1.77516e-05
 Reference value :  1.77525e-05
 Reference value :  1.77538e-05
 Reference value :  1.77549e-05
 Reference value :  1.77562e-05
 Reference value :  1.77576e-05
 Reference value :  1.77594e-05
 Reference value :  1.77655e-05
 Reference value :  1.77835e-05
 Reference value :  1.78419e-05
 Reference value :  1.80009e-05
 Reference value :  1.80037e-05
 Reference value :  1.80055e-05
 Reference value :  1.80072e-05
 Reference value :  1.80102e-05
 Reference value :  1.80120e-05
 Reference value :  1.80146e-05
 Reference value :  1.80164e-05
 Reference value :  1.80211e-05
 Reference value :  1.80523e-05
 Reference value :  1.82501e-05
 Reference value :  1.82502e-05
 Reference value :  1.82502e-05
 Reference value :  1.82504e-05
 Reference value :  1.82511e-05
 Reference value :  1.82520e-05
 Reference value :  1.82531e-05
 Reference value :  1.82537e-05
 Reference value :  1.82548e-05
 Reference value :  1.82574e-05
 Reference value :  1.82645e-05
 Reference value :  1.83531e-05
 Reference value :  1.85000e-05
 Reference value :  1.85001e-05
 Reference value :  1.85002e-05
 Reference value :  1.85005e-05
 Reference value :  1.85012e-05
 Reference value :  1.85020e-05
 Reference value :  1.85030e-05
 Reference value :  1.85041e-05
 Reference value :  1.85056e-05
 Reference value :  1.85062e-05
 Reference value :  1.85079e-05
 Reference value :  1.85111e-05
 Reference value :  1.85262e-05
 Reference value :  1.87407e-05
 Reference value :  1.87501e-05
 Reference value :  1.87502e-05
 Reference value :  1.87504e-05
 Reference value :  1.87520e-05
 Reference value :  1.87538e-05
 Reference value :  1.87555e-05
 Reference value :  1.87570e-05
 Reference value :  1.87604e-05
 Reference value :  1.87742e-05
 Reference value :  1.89040e-05
 Reference value :  1.90001e-05
 Reference value :  1.90001e-05
 Reference value :  1.90003e-05
 Reference value :  1.90009e-05
 Reference value :  1.90021e-05
 Reference value :  1.90031e-05
 Reference value :  1.90047e-05
 Reference value :  1.90057e-05
 Reference value :  1.90081e-05
 Reference value :  1.90101e-05
 Reference value :  1.90120e-05
 Reference value :  1.90137e-05
 Reference value :  1.90153e-05
 Reference value :  1.90171e-05
 Reference value :  1.90191e-05
 Reference value :  1.90257e-05
 Reference value :  1.90548e-05
 Reference value :  1.91163e-05
 Reference value :  1.91434e-05
 Reference value :  1.91604e-05
 Reference value :  1.91788e-05
 Reference value :  1.92090e-05
 Reference value :  1.92501e-05
 Reference value :  1.92502e-05
 Reference value :  1.92502e-05
 Reference value :  1.92503e-05
 Reference value :  1.92507e-05
 Reference value :  1.92516e-05
 Reference value :  1.92525e-05
 Reference value :  1.92532e-05
 Reference value :  1.92538e-05
 Reference value :  1.92550e-05
 Reference value :  1.92564e-05
 Reference value :  1.92625e-05
 Reference value :  1.92855e-05
 Reference value :  1.94566e-05
 Reference value :  1.95007e-05
 Reference value :  1.95029e-05
 Reference value :  1.95044e-05
 Reference value :  1.95060e-05
 Reference value :  1.95066e-05
 Reference value :  1.95083e-05
 Reference value :  1.95101e-05
 Reference value :  1.95123e-05
 Reference value :  1.95269e-05
 Reference value :  1.97501e-05
 Reference value :  1.97502e-05
 Reference value :  1.97503e-05
 Reference value :  1.97507e-05
 Reference value :  1.97520e-05
 Reference value :  1.97532e-05
 Reference value :  1.97543e-05
 Reference value :  1.97554e-05
 Reference value :  1.97571e-05
 Reference value :  1.97640e-05
 Reference value :  1.98375e-05
 Reference value :  2.00000e-05
 Reference value :  2.00001e-05
 Reference value :  2.00003e-05
 Reference value :  2.00012e-05
 Reference value :  2.00026e-05
 Reference value :  2.00042e-05
 Reference value :  2.00052e-05
 Reference value :  2.00073e-05
 Reference value :  2.00103e-05
 Reference value :  2.00134e-05
 Reference value :  2.00156e-05
 Reference value :  2.00176e-05
 Reference value :  2.00219e-05
 Reference value :  2.00508e-05
 Reference value :  2.00881e-05
 Reference value :  2.01112e-05
 Reference value :  2.01467e-05
 Reference value :  2.01911e-05
 Reference value :  2.02210e-05
 Reference value :  2.02419e-05
 Reference value :  2.02501e-05
 Reference value :  2.02502e-05
 Reference value :  2.02503e-05
 Reference value :  2.02511e-05
 Reference value :  2.02520e-05
 Reference value :  2.02532e-05
 Reference value :  2.02538e-05
 Reference value :  2.02550e-05
 Reference value :  2.02564e-05
 Reference value :  2.02596e-05
 Reference value :  2.02724e-05
 Reference value :  2.03642e-05
 Reference value :  2.05000e-05
 Reference value :  2.05005e-05
 Reference value :  2.05021e-05
 Reference value :  2.05031e-05
 Reference value :  2.05043e-05
 Reference value :  2.05059e-05
 Reference value :  2.05066e-05
 Reference value :  2.05084e-05
 Reference value :  2.05104e-05
 Reference value :  2.05116e-05
 Reference value :  2.05153e-05
 Reference value :  2.05249e-05
 Reference value :  2.05873e-05
 Reference value :  2.07501e-05
 Reference value :  2.07501e-05
 Reference value :  2.07502e-05
 Reference value :  2.07503e-05
 Reference value :  2.07504e-05
 Reference value :  2.07511e-05
 Reference value :  2.07520e-05
 Reference value :  2.07532e-05
 Reference value :  2.07538e-05
 Reference value :  2.07549e-05
 Reference value :  2.07563e-05
 Reference value :  2.07590e-05
 Reference value :  2.07699e-05
 Reference value :  2.08465e-05
 Reference value :  2.10000e-05
 Reference value :  2.10001e-05
 Reference value :  2.10002e-05
 Reference value :  2.10005e-05
 Reference value :  2.10012e-05
 Reference value :  2.10021e-05
 Reference value :  2.10031e-05
 Reference value :  2.10042e-05
 Reference value :  2.10052e-05
 Reference value :  2.10065e-05
 Reference value :  2.10087e-05
 Reference value :  2.10103e-05
 Reference value :  2.10119e-05
 Reference value :  2.10134e-05
 Reference value :  2.10145e-05
 Reference value :  2.10165e-05
 Reference value :  2.10187e-05
 Reference value :  2.10244e-05
 Reference value :  2.10355e-05
 Reference value :  2.10466e-05
 Reference value :  2.10513e-05
 Reference value :  2.10587e-05
 Reference value :  2.10669e-05
 Reference value :  2.10860e-05
 Reference value :  2.11228e-05
 Reference value :  2.12501e-05
 Reference value :  2.12501e-05
 Reference value :  2.12502e-05
 Reference value :  2.12503e-05
 Reference value :  2.12504e-05
 Reference value :  2.12511e-05
 Reference value :  2.12520e-05
 Reference value :  2.12532e-05
 Reference value :  2.12543e-05
 Reference value :  2.12565e-05
 Reference value :  2.12659e-05
 Reference value :  2.14726e-05
 Reference value :  2.15001e-05
 Reference value :  2.15001e-05
 Reference value :  2.15003e-05
 Reference value :  2.15009e-05
 Reference value :  2.15020e-05
 Reference value :  2.15030e-05
 Reference value :  2.15049e-05
 Reference value :  2.15062e-05
 Reference value :  2.15080e-05
 Reference value :  2.15111e-05
 Reference value :  2.15262e-05
 Reference value :  2.17501e-05
 Reference value :  2.17502e-05
 Reference value :  2.17507e-05
 Reference value :  2.17520e-05
 Reference value :  2.17538e-05
 Reference value :  2.17555e-05
 Reference value :  2.17570e-05
 Reference value :  2.17604e-05
 Reference value :  2.17742e-05
 Reference value :  2.19048e-05
 Reference value :  2.20015e-05
 Reference value :  2.20046e-05
 Reference value :  2.20061e-05
 Reference value :  2.20090e-05
 Reference value :  2.20113e-05
 Reference value :  2.20123e-05
 Reference value :  2.20143e-05
 Reference value :  2.20161e-05
 Reference value :  2.20191e-05
 Reference value :  2.20240e-05
 Reference value :  2.20446e-05
 Reference value :  2.20607e-05
 Reference value :  2.20831e-05
 Reference value :  2.21347e-05
 Reference value :  2.22181e-05
 Reference value :  2.22501e-05
 Reference value :  2.22502e-05
 Reference value :  2.22503e-05
 Reference value :  2.22511e-05
 Reference value :  2.22520e-05
 Reference value :  2.22532e-05
 Reference value :  2.22537e-05
 Reference value :  2.22549e-05
 Reference value :  2.22563e-05
 Reference value :  2.22591e-05
 Reference value :  2.22708e-05
 Reference value :  2.23073e-05
 Reference value :  2.24530e-05
 Reference value :  2.25000e-05
 Reference value :  2.25001e-05
 Reference value :  2.25001e-05
 Reference value :  2.25003e-05
 Reference value :  2.25009e-05
 Reference value :  2.25016e-05
 Reference value :  2.25025e-05
 Reference value :  2.25036e-05
 Reference value :  2.25056e-05
 Reference value :  2.25062e-05
 Reference value :  2.25089e-05
 Reference value :  2.25145e-05
 Reference value :  2.25405e-05
 Reference value :  2.27405e-05
 Reference value :  2.27502e-05
 Reference value :  2.27503e-05
 Reference value :  2.27511e-05
 Reference value :  2.27520e-05
 Reference value :  2.27538e-05
 Reference value :  2.27555e-05
 Reference value :  2.27579e-05
 Reference value :  2.27621e-05
 Reference value :  2.28019e-05
 Reference value :  2.30015e-05
 Reference value :  2.30061e-05
 Reference value :  2.30089e-05
 Reference value :  2.30113e-05
 Reference value :  2.30123e-05
 Reference value :  2.30143e-05
 Reference value :  2.30162e-05
 Reference value :  2.30191e-05
 Reference value :  2.30281e-05
 Reference value :  2.30409e-05
 Reference value :  2.30454e-05
 Reference value :  2.30488e-05
 Reference value :  2.30565e-05
 Reference value :  2.30754e-05
 Reference value :  2.31983e-05
 Reference value :  2.32501e-05
 Reference value :  2.32502e-05
 Reference value :  2.32504e-05
 Reference value :  2.32516e-05
 Reference value :  2.32525e-05
 Reference value :  2.32537e-05
 Reference value :  2.32549e-05
 Reference value :  2.32576e-05
 Reference value :  2.32712e-05
 Reference value :  2.34597e-05
 Reference value :  2.35000e-05
 Reference value :  2.35001e-05
 Reference value :  2.35002e-05
 Reference value :  2.35009e-05
 Reference value :  2.35016e-05
 Reference value :  2.35031e-05
 Reference value :  2.35049e-05
 Reference value :  2.35063e-05
 Reference value :  2.35079e-05
 Reference value :  2.35109e-05
 Reference value :  2.35265e-05
 Reference value :  2.37501e-05
 Reference value :  2.37502e-05
 Reference value :  2.37503e-05
 Reference value :  2.37511e-05
 Reference value :  2.37520e-05
 Reference value :  2.37538e-05
 Reference value :  2.37549e-05
 Reference value :  2.37563e-05
 Reference value :  2.37612e-05
 Reference value :  2.37809e-05
 Reference value :  2.39346e-05
 Reference value :  2.40000e-05
 Reference value :  2.40001e-05
 Reference value :  2.40002e-05
 Reference value :  2.40003e-05
 Reference value :  2.40009e-05
 Reference value :  2.40016e-05
 Reference value :  2.40026e-05
 Reference value :  2.40031e-05
 Reference value :  2.40042e-05
 Reference value :  2.40052e-05
 Reference value :  2.40073e-05
 Reference value :  2.40103e-05
 Reference value :  2.40134e-05
 Reference value :  2.40156e-05
 Reference value :  2.40175e-05
 Reference value :  2.40199e-05
 Reference value :  2.40361e-05
 Reference value :  2.40867e-05
 Reference value :  2.41097e-05
 Reference value :  2.41555e-05
 Reference value :  2.42501e-05
 Reference value :  2.42502e-05
 Reference value :  2.42503e-05
 Reference value :  2.42511e-05
 Reference value :  2.42520e-05
 Reference value :  2.42532e-05
 Reference value :  2.42543e-05
 Reference value :  2.42565e-05
 Reference value :  2.42625e-05
 Reference value :  2.42856e-05
 Reference value :  2.45000e-05
 Reference value :  2.45001e-05
 Reference value :  2.45002e-05
 Reference value :  2.45009e-05
 Reference value :  2.45016e-05
 Reference value :  2.45030e-05
 Reference value :  2.45056e-05
 Reference value :  2.45070e-05
 Reference value :  2.45099e-05
 Reference value :  2.45262e-05
 Reference value :  2.47501e-05
 Reference value :  2.47502e-05
 Reference value :  2.47503e-05
 Reference value :  2.47516e-05
 Reference value :  2.47532e-05
 Reference value :  2.47549e-05
 Reference value :  2.47570e-05
 Reference value :  2.47620e-05
 Reference value :  2.48010e-05
 Reference value :  2.50000e-05
 Reference value :  2.50001e-05
 Reference value :  2.50002e-05
 Reference value :  2.50005e-05
 Reference value :  2.50009e-05
 Reference value :  2.50016e-05
 Reference value :  2.50026e-05
 Reference value :  2.50036e-05
 Reference value :  2.50047e-05
 Reference value :  2.50052e-05
 Reference value :  2.50063e-05
 Reference value :  2.50077e-05
 Reference value :  2.50093e-05
 Reference value :  2.50109e-05
 Reference value :  2.50155e-05
 Reference value :  2.50214e-05
 Reference value :  2.50386e-05
 Reference value :  2.50480e-05
 Reference value :  2.50538e-05
 Reference value :  2.50689e-05
 Reference value :  2.50924e-05
 Reference value :  2.51400e-05
 Reference value :  2.52501e-05
 Reference value :  2.52502e-05
 Reference value :  2.52502e-05
 Reference value :  2.52503e-05
 Reference value :  2.52511e-05
 Reference value :  2.52520e-05
 Reference value :  2.52539e-05
 Reference value :  2.52568e-05
 Reference value :  2.52601e-05
 Reference value :  2.52893e-05
 Reference value :  2.54990e-05
 Reference value :  2.55000e-05
 Reference value :  2.55000e-05
 Reference value :  2.55000e-05
 Reference value :  2.55000e-05
 Reference value :  2.55001e-05
 Reference value :  2.55001e-05
 Reference value :  2.55003e-05
 Reference value :  2.55012e-05
 Reference value :  2.55020e-05
 Reference value :  2.55031e-05
 Reference value :  2.55036e-05
 Reference value :  2.55046e-05
 Reference value :  2.55058e-05
 Reference value :  2.55095e-05
 Reference value :  2.55229e-05
 Reference value :  2.55290e-05
 Reference value :  2.55332e-05
 Reference value :  2.55368e-05
 Reference value :  2.55411e-05
 Reference value :  2.55460e-05
 Reference value :  2.55525e-05
 Reference value :  2.55660e-05
 Reference value :  2.56317e-05
 Reference value :  2.57165e-05
 Reference value :  2.57375e-05
 Reference value :  2.57501e-05
 Reference value :  2.57502e-05
 Reference value :  2.57502e-05
 Reference value :  2.57503e-05
 Reference value :  2.57507e-05
 Reference value :  2.57516e-05
 Reference value :  2.57525e-05
 Reference value :  2.57532e-05
 Reference value :  2.57537e-05
 Reference value :  2.57550e-05
 Reference value :  2.57581e-05
 Reference value :  2.57660e-05
 Reference value :  2.58665e-05
 Reference value :  2.60000e-05
 Reference value :  2.60001e-05
 Reference value :  2.60002e-05
 Reference value :  2.60005e-05
 Reference value :  2.60009e-05
 Reference value :  2.60016e-05
 Reference value :  2.60025e-05
 Reference value :  2.60030e-05
 Reference value :  2.60041e-05
 Reference value :  2.60056e-05
 Reference value :  2.60086e-05
 Reference value :  2.60099e-05
 Reference value :  2.60126e-05
 Reference value :  2.60178e-05
 Reference value :  2.60334e-05
 Reference value :  2.61236e-05
 Reference value :  2.62501e-05
 Reference value :  2.62502e-05
 Reference value :  2.62503e-05
 Reference value :  2.62504e-05
 Reference value :  2.62511e-05
 Reference value :  2.62520e-05
 Reference value :  2.62532e-05
 Reference value :  2.62538e-05
 Reference value :  2.62549e-05
 Reference value :  2.62562e-05
 Reference value :  2.62576e-05
 Reference value :  2.62594e-05
 Reference value :  2.62694e-05
 Reference value :  2.63142e-05
 Reference value :  2.65000e-05
 Reference value :  2.65009e-05
 Reference value :  2.65037e-05
 Reference value :  2.65056e-05
 Reference value :  2.65072e-05
 Reference value :  2.65102e-05
 Reference value :  2.65120e-05
 Reference value :  2.65138e-05
 Reference value :  2.65155e-05
 Reference value :  2.65193e-05
 Reference value :  2.65383e-05
 Reference value :  2.66837e-05
 Reference value :  2.67502e-05
 Reference value :  2.67503e-05
 Reference value :  2.67507e-05
 Reference value :  2.67520e-05
 Reference value :  2.67531e-05
 Reference value :  2.67537e-05
 Reference value :  2.67548e-05
 Reference value :  2.67563e-05
 Reference value :  2.67590e-05
 Reference value :  2.67706e-05
 Reference value :  2.68520e-05
 Reference value :  2.70000e-05
 Reference value :  2.70001e-05
 Reference value :  2.70001e-05
 Reference value :  2.70003e-05
 Reference value :  2.70009e-05
 Reference value :  2.70016e-05
 Reference value :  2.70025e-05
 Reference value :  2.70030e-05
 Reference value :  2.70041e-05
 Reference value :  2.70056e-05
 Reference value :  2.70062e-05
 Reference value :  2.70079e-05
 Reference value :  2.70111e-05
 Reference value :  2.70191e-05
 Reference value :  2.70691e-05
 Reference value :  2.72501e-05
 Reference value :  2.72501e-05
 Reference value :  2.72502e-05
 Reference value :  2.72503e-05
 Reference value :  2.72511e-05
 Reference value :  2.72520e-05
 Reference value :  2.72538e-05
 Reference value :  2.72555e-05
 Reference value :  2.72579e-05
 Reference value :  2.72620e-05
 Reference value :  2.73015e-05
 Reference value :  2.75000e-05
 Reference value :  2.75001e-05
 Reference value :  2.75001e-05
 Reference value :  2.75003e-05
 Reference value :  2.75009e-05
 Reference value :  2.75016e-05
 Reference value :  2.75026e-05
 Reference value :  2.75031e-05
 Reference value :  2.75042e-05
 Reference value :  2.75052e-05
 Reference value :  2.75064e-05
 Reference value :  2.75081e-05
 Reference value :  2.75101e-05
 Reference value :  2.75120e-05
 Reference value :  2.75137e-05
 Reference value :  2.75153e-05
 Reference value :  2.75171e-05
 Reference value :  2.75191e-05
 Reference value :  2.75257e-05
 Reference value :  2.75548e-05
 Reference value :  2.76088e-05
 Reference value :  2.76311e-05
 Reference value :  2.76490e-05
 Reference value :  2.76792e-05
 Reference value :  2.77017e-05
 Reference value :  2.77501e-05
 Reference value :  2.77501e-05
 Reference value :  2.77502e-05
 Reference value :  2.77503e-05
 Reference value :  2.77504e-05
 Reference value :  2.77511e-05
 Reference value :  2.77520e-05
 Reference value :  2.77532e-05
 Reference value :  2.77538e-05
 Reference value :  2.77550e-05
 Reference value :  2.77565e-05
 Reference value :  2.77625e-05
 Reference value :  2.77724e-05
 Reference value :  2.78644e-05
 Reference value :  2.80007e-05
 Reference value :  2.80029e-05
 Reference value :  2.80044e-05
 Reference value :  2.80059e-05
 Reference value :  2.80074e-05
 Reference value :  2.80083e-05
 Reference value :  2.80101e-05
 Reference value :  2.80123e-05
 Reference value :  2.80425e-05
 Reference value :  2.82501e-05
 Reference value :  2.82502e-05
 Reference value :  2.82503e-05
 Reference value :  2.82507e-05
 Reference value :  2.82516e-05
 Reference value :  2.82525e-05
 Reference value :  2.82537e-05
 Reference value :  2.82548e-05
 Reference value :  2.82562e-05
 Reference value :  2.82609e-05
 Reference value :  2.82982e-05
 Reference value :  2.85000e-05
 Reference value :  2.85001e-05
 Reference value :  2.85001e-05
 Reference value :  2.85002e-05
 Reference value :  2.85003e-05
 Reference value :  2.85009e-05
 Reference value :  2.85016e-05
 Reference value :  2.85026e-05
 Reference value :  2.85036e-05
 Reference value :  2.85047e-05
 Reference value :  2.85058e-05
 Reference value :  2.85087e-05
 Reference value :  2.85103e-05
 Reference value :  2.85119e-05
 Reference value :  2.85145e-05
 Reference value :  2.85165e-05
 Reference value :  2.85187e-05
 Reference value :  2.85243e-05
 Reference value :  2.85374e-05
 Reference value :  2.85885e-05
 Reference value :  2.86020e-05
 Reference value :  2.86130e-05
 Reference value :  2.86232e-05
 Reference value :  2.86408e-05
 Reference value :  2.86623e-05
 Reference value :  2.86737e-05
 Reference value :  2.86990e-05
 Reference value :  2.87098e-05
 Reference value :  2.87302e-05
 Reference value :  2.87501e-05
 Reference value :  2.87501e-05
 Reference value :  2.87502e-05
 Reference value :  2.87503e-05
 Reference value :  2.87511e-05
 Reference value :  2.87520e-05
 Reference value :  2.87532e-05
 Reference value :  2.87538e-05
 Reference value :  2.87550e-05
 Reference value :  2.87580e-05
 Reference value :  2.87724e-05
 Reference value :  2.89578e-05
 Reference value :  2.90007e-05
 Reference value :  2.90029e-05
 Reference value :  2.90042e-05
 Reference value :  2.90058e-05
 Reference value :  2.90072e-05
 Reference value :  2.90091e-05
 Reference value :  2.90124e-05
 Reference value :  2.90411e-05
 Reference value :  2.92501e-05
 Reference value :  2.92502e-05
 Reference value :  2.92503e-05
 Reference value :  2.92511e-05
 Reference value :  2.92520e-05
 Reference value :  2.92532e-05
 Reference value :  2.92543e-05
 Reference value :  2.92554e-05
 Reference value :  2.92571e-05
 Reference value :  2.92688e-05
 Reference value :  2.94152e-05
 Reference value :  2.95001e-05
 Reference value :  2.95002e-05
 Reference value :  2.95009e-05
 Reference value :  2.95021e-05
 Reference value :  2.95031e-05
 Reference value :  2.95047e-05
 Reference value :  2.95058e-05
 Reference value :  2.95087e-05
 Reference value :  2.95119e-05
 Reference value :  2.95145e-05
 Reference value :  2.95165e-05
 Reference value :  2.95186e-05
 Reference value :  2.95237e-05
 Reference value :  2.95339e-05
 Reference value :  2.95443e-05
 Reference value :  2.95535e-05
 Reference value :  2.95674e-05
 Reference value :  2.95867e-05
 Reference value :  2.96761e-05
 Reference value :  2.97502e-05
 Reference value :  2.97503e-05
 Reference value :  2.97507e-05
 Reference value :  2.97520e-05
 Reference value :  2.97537e-05
 Reference value :  2.97557e-05
 Reference value :  2.97597e-05
 Reference value :  2.97726e-05
 Reference value :  2.98660e-05
 Reference value :  3.00000e-05
 Reference value :  3.00001e-05
 Reference value :  3.00002e-05
 Reference value :  3.00005e-05
 Reference value :  3.00012e-05
 Reference value :  3.00025e-05
 Reference value :  3.00041e-05
 Reference value :  3.00062e-05
 Reference value :  3.00089e-05
 Reference value :  3.00122e-05
 Reference value :  3.00404e-05
 Reference value :  3.02501e-05
 Reference value :  3.02502e-05
 Reference value :  3.02502e-05
 Reference value :  3.02504e-05
 Reference value :  3.02516e-05
 Reference value :  3.02525e-05
 Reference value :  3.02538e-05
 Reference value :  3.02549e-05
 Reference value :  3.02562e-05
 Reference value :  3.02589e-05
 Reference value :  3.02647e-05
 Reference value :  3.03017e-05
 Reference value :  3.05015e-05
 Reference value :  3.05046e-05
 Reference value :  3.05061e-05
 Reference value :  3.05090e-05
 Reference value :  3.05101e-05
 Reference value :  3.05123e-05
 Reference value :  3.05143e-05
 Reference value :  3.05161e-05
 Reference value :  3.05180e-05
 Reference value :  3.05190e-05
 Reference value :  3.05220e-05
 Reference value :  3.05344e-05
 Reference value :  3.05520e-05
 Reference value :  3.05649e-05
 Reference value :  3.05886e-05
 Reference value :  3.06186e-05
 Reference value :  3.06724e-05
 Reference value :  3.07501e-05
 Reference value :  3.07502e-05
 Reference value :  3.07502e-05
 Reference value :  3.07507e-05
 Reference value :  3.07516e-05
 Reference value :  3.07525e-05
 Reference value :  3.07537e-05
 Reference value :  3.07549e-05
 Reference value :  3.07563e-05
 Reference value :  3.07618e-05
 Reference value :  3.07830e-05
 Reference value :  3.09524e-05
 Reference value :  3.10000e-05
 Reference value :  3.10001e-05
 Reference value :  3.10002e-05
 Reference value :  3.10009e-05
 Reference value :  3.10020e-05
 Reference value :  3.10030e-05
 Reference value :  3.10049e-05
 Reference value :  3.10062e-05
 Reference value :  3.10089e-05
 Reference value :  3.10122e-05
 Reference value :  3.10405e-05
 Reference value :  3.12501e-05
 Reference value :  3.12502e-05
 Reference value :  3.12504e-05
 Reference value :  3.12520e-05
 Reference value :  3.12538e-05
 Reference value :  3.12549e-05
 Reference value :  3.12562e-05
 Reference value :  3.12589e-05
 Reference value :  3.12679e-05
 Reference value :  3.13366e-05
 Reference value :  3.15000e-05
 Reference value :  3.15001e-05
 Reference value :  3.15002e-05
 Reference value :  3.15005e-05
 Reference value :  3.15012e-05
 Reference value :  3.15021e-05
 Reference value :  3.15031e-05
 Reference value :  3.15042e-05
 Reference value :  3.15052e-05
 Reference value :  3.15071e-05
 Reference value :  3.15101e-05
 Reference value :  3.15130e-05
 Reference value :  3.15153e-05
 Reference value :  3.15182e-05
 Reference value :  3.15228e-05
 Reference value :  3.15340e-05
 Reference value :  3.15418e-05
 Reference value :  3.15536e-05
 Reference value :  3.16007e-05
 Reference value :  3.17501e-05
 Reference value :  3.17501e-05
 Reference value :  3.17502e-05
 Reference value :  3.17503e-05
 Reference value :  3.17507e-05
 Reference value :  3.17516e-05
 Reference value :  3.17525e-05
 Reference value :  3.17538e-05
 Reference value :  3.17550e-05
 Reference value :  3.17580e-05
 Reference value :  3.17658e-05
 Reference value :  3.18118e-05
 Reference value :  3.20000e-05
 Reference value :  3.20001e-05
 Reference value :  3.20003e-05
 Reference value :  3.20009e-05
 Reference value :  3.20016e-05
 Reference value :  3.20026e-05
 Reference value :  3.20031e-05
 Reference value :  3.20042e-05
 Reference value :  3.20057e-05
 Reference value :  3.20063e-05
 Reference value :  3.20079e-05
 Reference value :  3.20098e-05
 Reference value :  3.20121e-05
 Reference value :  3.20265e-05
 Reference value :  3.21319e-05
 Reference value :  3.22501e-05
 Reference value :  3.22502e-05
 Reference value :  3.22503e-05
 Reference value :  3.22507e-05
 Reference value :  3.22516e-05
 Reference value :  3.22520e-05
 Reference value :  3.22532e-05
 Reference value :  3.22544e-05
 Reference value :  3.22555e-05
 Reference value :  3.22612e-05
 Reference value :  3.23471e-05
 Reference value :  3.25001e-05
 Reference value :  3.25002e-05
 Reference value :  3.25009e-05
 Reference value :  3.25021e-05
 Reference value :  3.25036e-05
 Reference value :  3.25052e-05
 Reference value :  3.25073e-05
 Reference value :  3.25103e-05
 Reference value :  3.25134e-05
 Reference value :  3.25156e-05
 Reference value :  3.25187e-05
 Reference value :  3.25294e-05
 Reference value :  3.26060e-05
 Reference value :  3.27501e-05
 Reference value :  3.27502e-05
 Reference value :  3.27503e-05
 Reference value :  3.27507e-05
 Reference value :  3.27520e-05
 Reference value :  3.27538e-05
 Reference value :  3.27550e-05
 Reference value :  3.27580e-05
 Reference value :  3.27723e-05
 Reference value :  3.28639e-05
 Reference value :  3.29136e-05
 Reference value :  3.29522e-05
 Reference value :  3.30000e-05
 Reference value :  3.30000e-05
 Reference value :  3.30001e-05
 Reference value :  3.30002e-05
 Reference value :  3.30009e-05
 Reference value :  3.30016e-05
 Reference value :  3.30030e-05
 Reference value :  3.30041e-05
 Reference value :  3.30056e-05
 Reference value :  3.30062e-05
 Reference value :  3.30079e-05
 Reference value :  3.30098e-05
 Reference value :  3.30146e-05
 Reference value :  3.31281e-05
 Reference value :  3.32501e-05
 Reference value :  3.32502e-05
 Reference value :  3.32504e-05
 Reference value :  3.32516e-05
 Reference value :  3.32525e-05
 Reference value :  3.32538e-05
 Reference value :  3.32549e-05
 Reference value :  3.32562e-05
 Reference value :  3.32578e-05
 Reference value :  3.32620e-05
 Reference value :  3.32842e-05
 Reference value :  3.35000e-05
 Reference value :  3.35015e-05
 Reference value :  3.35046e-05
 Reference value :  3.35061e-05
 Reference value :  3.35090e-05
 Reference value :  3.35113e-05
 Reference value :  3.35137e-05
 Reference value :  3.35172e-05
 Reference value :  3.35215e-05
 Reference value :  3.35265e-05
 Reference value :  3.35358e-05
 Reference value :  3.35822e-05
 Reference value :  3.37501e-05
 Reference value :  3.37502e-05
 Reference value :  3.37503e-05
 Reference value :  3.37507e-05
 Reference value :  3.37516e-05
 Reference value :  3.37520e-05
 Reference value :  3.37532e-05
 Reference value :  3.37556e-05
 Reference value :  3.37599e-05
 Reference value :  3.37867e-05
 Reference value :  3.40000e-05
 Reference value :  3.40000e-05
 Reference value :  3.40000e-05
 Reference value :  3.40000e-05
 Reference value :  3.40001e-05
 Reference value :  3.40003e-05
 Reference value :  3.40012e-05
 Reference value :  3.40020e-05
 Reference value :  3.40031e-05
 Reference value :  3.40036e-05
 Reference value :  3.40046e-05
 Reference value :  3.40058e-05
 Reference value :  3.40095e-05
 Reference value :  3.40228e-05
 Reference value :  3.40290e-05
 Reference value :  3.40368e-05
 Reference value :  3.40435e-05
 Reference value :  3.40525e-05
 Reference value :  3.40613e-05
 Reference value :  3.41159e-05
 Reference value :  3.41929e-05
 Reference value :  3.42249e-05
 Reference value :  3.42501e-05
 Reference value :  3.42502e-05
 Reference value :  3.42502e-05
 Reference value :  3.42507e-05
 Reference value :  3.42520e-05
 Reference value :  3.42537e-05
 Reference value :  3.42557e-05
 Reference value :  3.42625e-05
 Reference value :  3.43124e-05
 Reference value :  3.45000e-05
 Reference value :  3.45001e-05
 Reference value :  3.45002e-05
 Reference value :  3.45009e-05
 Reference value :  3.45016e-05
 Reference value :  3.45025e-05
 Reference value :  3.45036e-05
 Reference value :  3.45056e-05
 Reference value :  3.45099e-05
 Reference value :  3.45126e-05
 Reference value :  3.45178e-05
 Reference value :  3.45488e-05
 Reference value :  3.47501e-05
 Reference value :  3.47502e-05
 Reference value :  3.47503e-05
 Reference value :  3.47507e-05
 Reference value :  3.47520e-05
 Reference value :  3.47532e-05
 Reference value :  3.47538e-05
 Reference value :  3.47549e-05
 Reference value :  3.47562e-05
 Reference value :  3.47576e-05
 Reference value :  3.47585e-05
 Reference value :  3.47609e-05
 Reference value :  3.47655e-05
 Reference value :  3.47834e-05
 Reference value :  3.48418e-05
 Reference value :  3.50000e-05
 Reference value :  3.50001e-05
 Reference value :  3.50001e-05
 Reference value :  3.50003e-05
 Reference value :  3.50009e-05
 Reference value :  3.50016e-05
 Reference value :  3.50026e-05
 Reference value :  3.50031e-05
 Reference value :  3.50042e-05
 Reference value :  3.50052e-05
 Reference value :  3.50064e-05
 Reference value :  3.50081e-05
 Reference value :  3.50101e-05
 Reference value :  3.50120e-05
 Reference value :  3.50137e-05
 Reference value :  3.50153e-05
 Reference value :  3.50171e-05
 Reference value :  3.50181e-05
 Reference value :  3.50209e-05
 Reference value :  3.50321e-05
 Reference value :  3.50912e-05
 Reference value :  3.52501e-05
 Reference value :  3.52502e-05
 Reference value :  3.52502e-05
 Reference value :  3.52503e-05
 Reference value :  3.52507e-05
 Reference value :  3.52516e-05
 Reference value :  3.52525e-05
 Reference value :  3.52538e-05
 Reference value :  3.52550e-05
 Reference value :  3.52580e-05
 Reference value :  3.52656e-05
 Reference value :  3.53104e-05
 Reference value :  3.55000e-05
 Reference value :  3.55001e-05
 Reference value :  3.55001e-05
 Reference value :  3.55003e-05
 Reference value :  3.55009e-05
 Reference value :  3.55016e-05
 Reference value :  3.55025e-05
 Reference value :  3.55036e-05
 Reference value :  3.55049e-05
 Reference value :  3.55062e-05
 Reference value :  3.55079e-05
 Reference value :  3.55099e-05
 Reference value :  3.55122e-05
 Reference value :  3.55262e-05
 Reference value :  3.56262e-05
 Reference value :  3.57501e-05
 Reference value :  3.57502e-05
 Reference value :  3.57503e-05
 Reference value :  3.57507e-05
 Reference value :  3.57516e-05
 Reference value :  3.57525e-05
 Reference value :  3.57538e-05
 Reference value :  3.57549e-05
 Reference value :  3.57562e-05
 Reference value :  3.57579e-05
 Reference value :  3.57604e-05
 Reference value :  3.57679e-05
 Reference value :  3.58016e-05
 Reference value :  3.60000e-05
 Reference value :  3.60017e-05
 Reference value :  3.60052e-05
 Reference value :  3.60070e-05
 Reference value :  3.60102e-05
 Reference value :  3.60128e-05
 Reference value :  3.60140e-05
 Reference value :  3.60151e-05
 Reference value :  3.60172e-05
 Reference value :  3.60195e-05
 Reference value :  3.60253e-05
 Reference value :  3.60687e-05
 Reference value :  3.61204e-05
 Reference value :  3.61459e-05
 Reference value :  3.61609e-05
 Reference value :  3.61881e-05
 Reference value :  3.62408e-05
 Reference value :  3.62501e-05
 Reference value :  3.62502e-05
 Reference value :  3.62502e-05
 Reference value :  3.62503e-05
 Reference value :  3.62504e-05
 Reference value :  3.62511e-05
 Reference value :  3.62520e-05
 Reference value :  3.62531e-05
 Reference value :  3.62536e-05
 Reference value :  3.62549e-05
 Reference value :  3.62575e-05
 Reference value :  3.62717e-05
 Reference value :  3.63977e-05
 Reference value :  3.65000e-05
 Reference value :  3.65001e-05
 Reference value :  3.65002e-05
 Reference value :  3.65003e-05
 Reference value :  3.65009e-05
 Reference value :  3.65016e-05
 Reference value :  3.65026e-05
 Reference value :  3.65031e-05
 Reference value :  3.65042e-05
 Reference value :  3.65057e-05
 Reference value :  3.65063e-05
 Reference value :  3.65080e-05
 Reference value :  3.65099e-05
 Reference value :  3.65121e-05
 Reference value :  3.65265e-05
 Reference value :  3.66321e-05
 Reference value :  3.67501e-05
 Reference value :  3.67502e-05
 Reference value :  3.67503e-05
 Reference value :  3.67507e-05
 Reference value :  3.67520e-05
 Reference value :  3.67532e-05
 Reference value :  3.67538e-05
 Reference value :  3.67544e-05
 Reference value :  3.67549e-05
 Reference value :  3.67563e-05
 Reference value :  3.67590e-05
 Reference value :  3.67699e-05
 Reference value :  3.68464e-05
 Reference value :  3.70000e-05
 Reference value :  3.70001e-05
 Reference value :  3.70002e-05
 Reference value :  3.70005e-05
 Reference value :  3.70012e-05
 Reference value :  3.70021e-05
 Reference value :  3.70031e-05
 Reference value :  3.70042e-05
 Reference value :  3.70052e-05
 Reference value :  3.70065e-05
 Reference value :  3.70087e-05
 Reference value :  3.70103e-05
 Reference value :  3.70134e-05
 Reference value :  3.70145e-05
 Reference value :  3.70165e-05
 Reference value :  3.70187e-05
 Reference value :  3.70243e-05
 Reference value :  3.70508e-05
 Reference value :  3.70891e-05
 Reference value :  3.71038e-05
 Reference value :  3.71153e-05
 Reference value :  3.71246e-05
 Reference value :  3.71428e-05
 Reference value :  3.71623e-05
 Reference value :  3.71757e-05
 Reference value :  3.71858e-05
 Reference value :  3.71919e-05
 Reference value :  3.71973e-05
 Reference value :  3.72085e-05
 Reference value :  3.72275e-05
 Reference value :  3.72501e-05
 Reference value :  3.72501e-05
 Reference value :  3.72502e-05
 Reference value :  3.72502e-05
 Reference value :  3.72503e-05
 Reference value :  3.72507e-05
 Reference value :  3.72516e-05
 Reference value :  3.72520e-05
 Reference value :  3.72532e-05
 Reference value :  3.72538e-05
 Reference value :  3.72550e-05
 Reference value :  3.72580e-05
 Reference value :  3.72658e-05
 Reference value :  3.73119e-05
 Reference value :  3.74003e-05
 Reference value :  3.75000e-05
 Reference value :  3.75001e-05
 Reference value :  3.75005e-05
 Reference value :  3.75012e-05
 Reference value :  3.75026e-05
 Reference value :  3.75036e-05
 Reference value :  3.75057e-05
 Reference value :  3.75070e-05
 Reference value :  3.75079e-05
 Reference value :  3.75111e-05
 Reference value :  3.75261e-05
 Reference value :  3.77421e-05
 Reference value :  3.77502e-05
 Reference value :  3.77502e-05
 Reference value :  3.77504e-05
 Reference value :  3.77516e-05
 Reference value :  3.77525e-05
 Reference value :  3.77538e-05
 Reference value :  3.77549e-05
 Reference value :  3.77563e-05
 Reference value :  3.77613e-05
 Reference value :  3.77811e-05
 Reference value :  3.79361e-05
 Reference value :  3.80000e-05
 Reference value :  3.80001e-05
 Reference value :  3.80002e-05
 Reference value :  3.80009e-05
 Reference value :  3.80016e-05
 Reference value :  3.80031e-05
 Reference value :  3.80047e-05
 Reference value :  3.80058e-05
 Reference value :  3.80087e-05
 Reference value :  3.80103e-05
 Reference value :  3.80119e-05
 Reference value :  3.80145e-05
 Reference value :  3.80165e-05
 Reference value :  3.80186e-05
 Reference value :  3.80237e-05
 Reference value :  3.80337e-05
 Reference value :  3.80445e-05
 Reference value :  3.80538e-05
 Reference value :  3.80631e-05
 Reference value :  3.80745e-05
 Reference value :  3.80940e-05
 Reference value :  3.81826e-05
 Reference value :  3.82501e-05
 Reference value :  3.82502e-05
 Reference value :  3.82502e-05
 Reference value :  3.82503e-05
 Reference value :  3.82507e-05
 Reference value :  3.82516e-05
 Reference value :  3.82525e-05
 Reference value :  3.82537e-05
 Reference value :  3.82557e-05
 Reference value :  3.82597e-05
 Reference value :  3.82859e-05
 Reference value :  3.84729e-05
 Reference value :  3.85005e-05
 Reference value :  3.85019e-05
 Reference value :  3.85029e-05
 Reference value :  3.85041e-05
 Reference value :  3.85056e-05
 Reference value :  3.85062e-05
 Reference value :  3.85070e-05
 Reference value :  3.85079e-05
 Reference value :  3.85089e-05
 Reference value :  3.85109e-05
 Reference value :  3.85144e-05
 Reference value :  3.85415e-05
 Reference value :  3.87501e-05
 Reference value :  3.87502e-05
 Reference value :  3.87502e-05
 Reference value :  3.87504e-05
 Reference value :  3.87511e-05
 Reference value :  3.87520e-05
 Reference value :  3.87532e-05
 Reference value :  3.87538e-05
 Reference value :  3.87549e-05
 Reference value :  3.87562e-05
 Reference value :  3.87579e-05
 Reference value :  3.87621e-05
 Reference value :  3.88022e-05
 Reference value :  3.90000e-05
 Reference value :  3.90001e-05
 Reference value :  3.90002e-05
 Reference value :  3.90005e-05
 Reference value :  3.90012e-05
 Reference value :  3.90021e-05
 Reference value :  3.90031e-05
 Reference value :  3.90047e-05
 Reference value :  3.90057e-05
 Reference value :  3.90081e-05
 Reference value :  3.90101e-05
 Reference value :  3.90120e-05
 Reference value :  3.90137e-05
 Reference value :  3.90152e-05
 Reference value :  3.90180e-05
 Reference value :  3.90225e-05
 Reference value :  3.90392e-05
 Reference value :  3.90536e-05
 Reference value :  3.90598e-05
 Reference value :  3.90715e-05
 Reference value :  3.90829e-05
 Reference value :  3.91146e-05
 Reference value :  3.91271e-05
 Reference value :  3.91613e-05
 Reference value :  3.92214e-05
 Reference value :  3.92501e-05
 Reference value :  3.92503e-05
 Reference value :  3.92511e-05
 Reference value :  3.92520e-05
 Reference value :  3.92537e-05
 Reference value :  3.92557e-05
 Reference value :  3.92627e-05
 Reference value :  3.93685e-05
 Reference value :  3.95000e-05
 Reference value :  3.95001e-05
 Reference value :  3.95009e-05
 Reference value :  3.95030e-05
 Reference value :  3.95056e-05
 Reference value :  3.95069e-05
 Reference value :  3.95111e-05
 Reference value :  3.95691e-05
 Reference value :  3.97501e-05
 Reference value :  3.97502e-05
 Reference value :  3.97511e-05
 Reference value :  3.97525e-05
 Reference value :  3.97544e-05
 Reference value :  3.97562e-05
 Reference value :  3.97604e-05
 Reference value :  3.97845e-05
 Reference value :  4.00000e-05
 Reference value :  4.00001e-05
 Reference value :  4.00001e-05
 Reference value :  4.00003e-05
 Reference value :  4.00009e-05
 Reference value :  4.00016e-05
 Reference value :  4.00031e-05
 Reference value :  4.00042e-05
 Reference value :  4.00052e-05
 Reference value :  4.00064e-05
 Reference value :  4.00081e-05
 Reference value :  4.00101e-05
 Reference value :  4.00120e-05
 Reference value :  4.00137e-05
 Reference value :  4.00153e-05
 Reference value :  4.00172e-05
 Reference value :  4.00192e-05
 Reference value :  4.00260e-05
 Reference value :  4.00304e-05
 Reference value :  4.00378e-05
 Reference value :  4.00445e-05
 Reference value :  4.00681e-05
 Reference value :  4.01816e-05
 Reference value :  4.02502e-05
 Reference value :  4.02503e-05
 Reference value :  4.02511e-05
 Reference value :  4.02520e-05
 Reference value :  4.02538e-05
 Reference value :  4.02550e-05
 Reference value :  4.02580e-05
 Reference value :  4.02724e-05
 Reference value :  4.04694e-05
 Reference value :  4.05000e-05
 Reference value :  4.05001e-05
 Reference value :  4.05002e-05
 Reference value :  4.05009e-05
 Reference value :  4.05016e-05
 Reference value :  4.05026e-05
 Reference value :  4.05036e-05
 Reference value :  4.05057e-05
 Reference value :  4.05063e-05
 Reference value :  4.05079e-05
 Reference value :  4.05098e-05
 Reference value :  4.05144e-05
 Reference value :  4.05416e-05
 Reference value :  4.07501e-05
 Reference value :  4.07502e-05
 Reference value :  4.07503e-05
 Reference value :  4.07511e-05
 Reference value :  4.07525e-05
 Reference value :  4.07538e-05
 Reference value :  4.07549e-05
 Reference value :  4.07563e-05
 Reference value :  4.07645e-05
 Reference value :  4.09353e-05
 Reference value :  4.10012e-05
 Reference value :  4.10047e-05
 Reference value :  4.10067e-05
 Reference value :  4.10103e-05
 Reference value :  4.10118e-05
 Reference value :  4.10130e-05
 Reference value :  4.10152e-05
 Reference value :  4.10174e-05
 Reference value :  4.10231e-05
 Reference value :  4.10788e-05
 Reference value :  4.12501e-05
 Reference value :  4.12502e-05
 Reference value :  4.12503e-05
 Reference value :  4.12507e-05
 Reference value :  4.12516e-05
 Reference value :  4.12525e-05
 Reference value :  4.12537e-05
 Reference value :  4.12564e-05
 Reference value :  4.12648e-05
 Reference value :  4.14351e-05
 Reference value :  4.15001e-05
 Reference value :  4.15002e-05
 Reference value :  4.15005e-05
 Reference value :  4.15016e-05
 Reference value :  4.15031e-05
 Reference value :  4.15057e-05
 Reference value :  4.15070e-05
 Reference value :  4.15089e-05
 Reference value :  4.15144e-05
 Reference value :  4.16318e-05
 Reference value :  4.17502e-05
 Reference value :  4.17503e-05
 Reference value :  4.17511e-05
 Reference value :  4.17525e-05
 Reference value :  4.17538e-05
 Reference value :  4.17549e-05
 Reference value :  4.17563e-05
 Reference value :  4.17612e-05
 Reference value :  4.18461e-05
 Reference value :  4.20001e-05
 Reference value :  4.20002e-05
 Reference value :  4.20009e-05
 Reference value :  4.20016e-05
 Reference value :  4.20026e-05
 Reference value :  4.20031e-05
 Reference value :  4.20042e-05
 Reference value :  4.20053e-05
 Reference value :  4.20074e-05
 Reference value :  4.20090e-05
 Reference value :  4.20112e-05
 Reference value :  4.20256e-05
 Reference value :  4.20723e-05
 Reference value :  4.22501e-05
 Reference value :  4.22501e-05
 Reference value :  4.22502e-05
 Reference value :  4.22503e-05
 Reference value :  4.22504e-05
 Reference value :  4.22511e-05
 Reference value :  4.22520e-05
 Reference value :  4.22532e-05
 Reference value :  4.22548e-05
 Reference value :  4.22584e-05
 Reference value :  4.22668e-05
 Reference value :  4.23191e-05
 Reference value :  4.25000e-05
 Reference value :  4.25000e-05
 Reference value :  4.25000e-05
 Reference value :  4.25000e-05
 Reference value :  4.25000e-05
 Reference value :  4.25000e-05
 Reference value :  4.25001e-05
 Reference value :  4.25001e-05
 Reference value :  4.25002e-05
 Reference value :  4.25007e-05
 Reference value :  4.25016e-05
 Reference value :  4.25020e-05
 Reference value :  4.25031e-05
 Reference value :  4.25036e-05
 Reference value :  4.25046e-05
 Reference value :  4.25058e-05
 Reference value :  4.25095e-05
 Reference value :  4.25228e-05
 Reference value :  4.25290e-05
 Reference value :  4.25368e-05
 Reference value :  4.25416e-05
 Reference value :  4.25483e-05
 Reference value :  4.25591e-05
 Reference value :  4.25767e-05
 Reference value :  4.26268e-05
 Reference value :  4.27162e-05
 Reference value :  4.27338e-05
 Reference value :  4.27475e-05
 Reference value :  4.27501e-05
 Reference value :  4.27502e-05
 Reference value :  4.27503e-05
 Reference value :  4.27507e-05
 Reference value :  4.27520e-05
 Reference value :  4.27532e-05
 Reference value :  4.27537e-05
 Reference value :  4.27550e-05
 Reference value :  4.27564e-05
 Reference value :  4.27624e-05
 Reference value :  4.28115e-05
 Reference value :  4.30000e-05
 Reference value :  4.30000e-05
 Reference value :  4.30001e-05
 Reference value :  4.30002e-05
 Reference value :  4.30003e-05
 Reference value :  4.30009e-05
 Reference value :  4.30016e-05
 Reference value :  4.30030e-05
 Reference value :  4.30041e-05
 Reference value :  4.30070e-05
 Reference value :  4.30099e-05
 Reference value :  4.30126e-05
 Reference value :  4.30178e-05
 Reference value :  4.30490e-05
 Reference value :  4.32501e-05
 Reference value :  4.32502e-05
 Reference value :  4.32503e-05
 Reference value :  4.32511e-05
 Reference value :  4.32520e-05
 Reference value :  4.32532e-05
 Reference value :  4.32538e-05
 Reference value :  4.32549e-05
 Reference value :  4.32562e-05
 Reference value :  4.32576e-05
 Reference value :  4.32585e-05
 Reference value :  4.32609e-05
 Reference value :  4.32694e-05
 Reference value :  4.32835e-05
 Reference value :  4.33145e-05
 Reference value :  4.34459e-05
 Reference value :  4.35010e-05
 Reference value :  4.35029e-05
 Reference value :  4.35040e-05
 Reference value :  4.35058e-05
 Reference value :  4.35075e-05
 Reference value :  4.35096e-05
 Reference value :  4.35105e-05
 Reference value :  4.35124e-05
 Reference value :  4.35141e-05
 Reference value :  4.35156e-05
 Reference value :  4.35174e-05
 Reference value :  4.35194e-05
 Reference value :  4.35253e-05
 Reference value :  4.35511e-05
 Reference value :  4.36914e-05
 Reference value :  4.37501e-05
 Reference value :  4.37502e-05
 Reference value :  4.37503e-05
 Reference value :  4.37511e-05
 Reference value :  4.37520e-05
 Reference value :  4.37531e-05
 Reference value :  4.37543e-05
 Reference value :  4.37554e-05
 Reference value :  4.37574e-05
 Reference value :  4.37645e-05
 Reference value :  4.38020e-05
 Reference value :  4.40000e-05
 Reference value :  4.40001e-05
 Reference value :  4.40001e-05
 Reference value :  4.40002e-05
 Reference value :  4.40003e-05
 Reference value :  4.40009e-05
 Reference value :  4.40012e-05
 Reference value :  4.40016e-05
 Reference value :  4.40025e-05
 Reference value :  4.40030e-05
 Reference value :  4.40036e-05
 Reference value :  4.40056e-05
 Reference value :  4.40062e-05
 Reference value :  4.40079e-05
 Reference value :  4.40111e-05
 Reference value :  4.40262e-05
 Reference value :  4.42406e-05
 Reference value :  4.42501e-05
 Reference value :  4.42502e-05
 Reference value :  4.42502e-05
 Reference value :  4.42504e-05
 Reference value :  4.42511e-05
 Reference value :  4.42520e-05
 Reference value :  4.42532e-05
 Reference value :  4.42538e-05
 Reference value :  4.42549e-05
 Reference value :  4.42562e-05
 Reference value :  4.42589e-05
 Reference value :  4.42647e-05
 Reference value :  4.43016e-05
 Reference value :  4.45000e-05
 Reference value :  4.45001e-05
 Reference value :  4.45002e-05
 Reference value :  4.45003e-05
 Reference value :  4.45009e-05
[...]
 Reference value :  1.66506e-04
 Reference value :  1.66508e-04
 Reference value :  1.66510e-04
 Reference value :  1.66512e-04
 Reference value :  1.66514e-04
 Reference value :  1.66515e-04
 Reference value :  1.66518e-04
 Reference value :  1.66523e-04
 Reference value :  1.66536e-04
 Reference value :  1.66542e-04
 Reference value :  1.66548e-04
 Reference value :  1.66578e-04
 Reference value :  1.66651e-04
 Reference value :  1.66750e-04
 Reference value :  1.66750e-04
 Reference value :  1.66750e-04
 Reference value :  1.66750e-04
 Reference value :  1.66751e-04
 Reference value :  1.66752e-04
 Reference value :  1.66753e-04
 Reference value :  1.66754e-04
 Reference value :  1.66756e-04
 Reference value :  1.66760e-04
 Reference value :  1.66772e-04
 Reference value :  1.66969e-04
 Reference value :  1.67000e-04
 Reference value :  1.67000e-04
 Reference value :  1.67000e-04
 Reference value :  1.67001e-04
 Reference value :  1.67002e-04
 Reference value :  1.67003e-04
 Reference value :  1.67004e-04
 Reference value :  1.67005e-04
 Reference value :  1.67006e-04
 Reference value :  1.67008e-04
 Reference value :  1.67010e-04
 Reference value :  1.67012e-04
 Reference value :  1.67026e-04
 Reference value :  1.67132e-04
 Reference value :  1.67250e-04
 Reference value :  1.67250e-04
 Reference value :  1.67250e-04
 Reference value :  1.67250e-04
 Reference value :  1.67251e-04
 Reference value :  1.67252e-04
 Reference value :  1.67253e-04
 Reference value :  1.67254e-04
 Reference value :  1.67255e-04
 Reference value :  1.67256e-04
 Reference value :  1.67259e-04
 Reference value :  1.67270e-04
 Reference value :  1.67347e-04
 Reference value :  1.67500e-04
 Reference value :  1.67500e-04
 Reference value :  1.67500e-04
 Reference value :  1.67501e-04
 Reference value :  1.67501e-04
 Reference value :  1.67502e-04
 Reference value :  1.67503e-04
 Reference value :  1.67503e-04
 Reference value :  1.67504e-04
 Reference value :  1.67505e-04
 Reference value :  1.67506e-04
 Reference value :  1.67509e-04
 Reference value :  1.67510e-04
 Reference value :  1.67513e-04
 Reference value :  1.67515e-04
 Reference value :  1.67517e-04
 Reference value :  1.67519e-04
 Reference value :  1.67524e-04
 Reference value :  1.67546e-04
 Reference value :  1.67628e-04
 Reference value :  1.67750e-04
 Reference value :  1.67750e-04
 Reference value :  1.67750e-04
 Reference value :  1.67750e-04
 Reference value :  1.67751e-04
 Reference value :  1.67752e-04
 Reference value :  1.67753e-04
 Reference value :  1.67754e-04
 Reference value :  1.67755e-04
 Reference value :  1.67756e-04
 Reference value :  1.67763e-04
 Reference value :  1.67786e-04
 Reference value :  1.67970e-04
 Reference value :  1.68000e-04
 Reference value :  1.68000e-04
 Reference value :  1.68000e-04
 Reference value :  1.68000e-04
 Reference value :  1.68001e-04
 Reference value :  1.68001e-04
 Reference value :  1.68002e-04
 Reference value :  1.68003e-04
 Reference value :  1.68004e-04
 Reference value :  1.68006e-04
 Reference value :  1.68007e-04
 Reference value :  1.68009e-04
 Reference value :  1.68012e-04
 Reference value :  1.68127e-04
 Reference value :  1.68250e-04
 Reference value :  1.68250e-04
 Reference value :  1.68251e-04
 Reference value :  1.68253e-04
 Reference value :  1.68254e-04
 Reference value :  1.68255e-04
 Reference value :  1.68259e-04
 Reference value :  1.68281e-04
 Reference value :  1.68500e-04
 Reference value :  1.68500e-04
 Reference value :  1.68500e-04
 Reference value :  1.68501e-04
 Reference value :  1.68503e-04
 Reference value :  1.68504e-04
 Reference value :  1.68505e-04
 Reference value :  1.68506e-04
 Reference value :  1.68509e-04
 Reference value :  1.68510e-04
 Reference value :  1.68513e-04
 Reference value :  1.68516e-04
 Reference value :  1.68516e-04
 Reference value :  1.68519e-04
 Reference value :  1.68524e-04
 Reference value :  1.68550e-04
 Reference value :  1.68656e-04
 Reference value :  1.68750e-04
 Reference value :  1.68750e-04
 Reference value :  1.68750e-04
 Reference value :  1.68751e-04
 Reference value :  1.68752e-04
 Reference value :  1.68753e-04
 Reference value :  1.68754e-04
 Reference value :  1.68755e-04
 Reference value :  1.68756e-04
 Reference value :  1.68760e-04
 Reference value :  1.68772e-04
 Reference value :  1.68864e-04
 Reference value :  1.68913e-04
 Reference value :  1.69000e-04
 Reference value :  1.69000e-04
 Reference value :  1.69000e-04
 Reference value :  1.69000e-04
 Reference value :  1.69001e-04
 Reference value :  1.69002e-04
 Reference value :  1.69003e-04
 Reference value :  1.69003e-04
 Reference value :  1.69004e-04
 Reference value :  1.69006e-04
 Reference value :  1.69006e-04
 Reference value :  1.69008e-04
 Reference value :  1.69010e-04
 Reference value :  1.69012e-04
 Reference value :  1.69019e-04
 Reference value :  1.69071e-04
 Reference value :  1.69246e-04
 Reference value :  1.69250e-04
 Reference value :  1.69250e-04
 Reference value :  1.69250e-04
 Reference value :  1.69250e-04
 Reference value :  1.69251e-04
 Reference value :  1.69252e-04
 Reference value :  1.69252e-04
 Reference value :  1.69253e-04
 Reference value :  1.69254e-04
 Reference value :  1.69255e-04
 Reference value :  1.69256e-04
 Reference value :  1.69258e-04
 Reference value :  1.69260e-04
 Reference value :  1.69265e-04
 Reference value :  1.69274e-04
 Reference value :  1.69301e-04
 Reference value :  1.69500e-04
 Reference value :  1.69500e-04
 Reference value :  1.69500e-04
 Reference value :  1.69501e-04
 Reference value :  1.69501e-04
 Reference value :  1.69502e-04
 Reference value :  1.69503e-04
 Reference value :  1.69504e-04
 Reference value :  1.69505e-04
 Reference value :  1.69507e-04
 Reference value :  1.69509e-04
 Reference value :  1.69510e-04
 Reference value :  1.69514e-04
 Reference value :  1.69519e-04
 Reference value :  1.69524e-04
 Reference value :  1.69532e-04
 Reference value :  1.69568e-04
 Reference value :  1.69750e-04
 Reference value :  1.69750e-04
 Reference value :  1.69750e-04
 Reference value :  1.69751e-04
 Reference value :  1.69752e-04
 Reference value :  1.69754e-04
 Reference value :  1.69757e-04
 Reference value :  1.69763e-04
 Reference value :  1.69819e-04
 Reference value :  1.70000e-04
 Reference value :  1.70000e-04
 Reference value :  1.70000e-04
 Reference value :  1.70000e-04
 Reference value :  1.70000e-04
 Reference value :  1.70002e-04
 Reference value :  1.70003e-04
 Reference value :  1.70005e-04
 Reference value :  1.70007e-04
 Reference value :  1.70023e-04
 Reference value :  1.70033e-04
 Reference value :  1.70039e-04
 Reference value :  1.70045e-04
 Reference value :  1.70065e-04
 Reference value :  1.70142e-04
 Reference value :  1.70250e-04
 Reference value :  1.70250e-04
 Reference value :  1.70250e-04
 Reference value :  1.70252e-04
 Reference value :  1.70254e-04
 Reference value :  1.70256e-04
 Reference value :  1.70272e-04
 Reference value :  1.70451e-04
 Reference value :  1.70500e-04
 Reference value :  1.70500e-04
 Reference value :  1.70501e-04
 Reference value :  1.70502e-04
 Reference value :  1.70504e-04
 Reference value :  1.70507e-04
 Reference value :  1.70511e-04
 Reference value :  1.70514e-04
 Reference value :  1.70534e-04
 Reference value :  1.70750e-04
 Reference value :  1.70750e-04
 Reference value :  1.70750e-04
 Reference value :  1.70752e-04
 Reference value :  1.70754e-04
 Reference value :  1.70756e-04
 Reference value :  1.70759e-04
 Reference value :  1.70796e-04
 Reference value :  1.71000e-04
 Reference value :  1.71000e-04
 Reference value :  1.71001e-04
 Reference value :  1.71003e-04
 Reference value :  1.71004e-04
 Reference value :  1.71006e-04
 Reference value :  1.71008e-04
 Reference value :  1.71011e-04
 Reference value :  1.71014e-04
 Reference value :  1.71016e-04
 Reference value :  1.71021e-04
 Reference value :  1.71091e-04
 Reference value :  1.71250e-04
 Reference value :  1.71250e-04
 Reference value :  1.71252e-04
 Reference value :  1.71253e-04
 Reference value :  1.71255e-04
 Reference value :  1.71260e-04
 Reference value :  1.71285e-04
 Reference value :  1.71500e-04
 Reference value :  1.71500e-04
 Reference value :  1.71500e-04
 Reference value :  1.71500e-04
 Reference value :  1.71501e-04
 Reference value :  1.71502e-04
 Reference value :  1.71503e-04
 Reference value :  1.71504e-04
 Reference value :  1.71506e-04
 Reference value :  1.71506e-04
 Reference value :  1.71508e-04
 Reference value :  1.71511e-04
 Reference value :  1.71526e-04
 Reference value :  1.71741e-04
 Reference value :  1.71750e-04
 Reference value :  1.71750e-04
 Reference value :  1.71750e-04
 Reference value :  1.71752e-04
 Reference value :  1.71753e-04
 Reference value :  1.71754e-04
 Reference value :  1.71755e-04
 Reference value :  1.71756e-04
 Reference value :  1.71759e-04
 Reference value :  1.71768e-04
 Reference value :  1.71904e-04
 Reference value :  1.72000e-04
 Reference value :  1.72000e-04
 Reference value :  1.72001e-04
 Reference value :  1.72001e-04
 Reference value :  1.72003e-04
 Reference value :  1.72004e-04
 Reference value :  1.72006e-04
 Reference value :  1.72008e-04
 Reference value :  1.72010e-04
 Reference value :  1.72012e-04
 Reference value :  1.72014e-04
 Reference value :  1.72015e-04
 Reference value :  1.72018e-04
 Reference value :  1.72023e-04
 Reference value :  1.72053e-04
 Reference value :  1.72083e-04
 Reference value :  1.72094e-04
 Reference value :  1.72106e-04
 Reference value :  1.72136e-04
 Reference value :  1.72160e-04
 Reference value :  1.72250e-04
 Reference value :  1.72250e-04
 Reference value :  1.72250e-04
 Reference value :  1.72250e-04
 Reference value :  1.72252e-04
 Reference value :  1.72253e-04
 Reference value :  1.72254e-04
 Reference value :  1.72255e-04
 Reference value :  1.72258e-04
 Reference value :  1.72285e-04
 Reference value :  1.72500e-04
 Reference value :  1.72500e-04
 Reference value :  1.72500e-04
 Reference value :  1.72500e-04
 Reference value :  1.72501e-04
 Reference value :  1.72502e-04
 Reference value :  1.72503e-04
 Reference value :  1.72505e-04
 Reference value :  1.72506e-04
 Reference value :  1.72508e-04
 Reference value :  1.72510e-04
 Reference value :  1.72514e-04
 Reference value :  1.72572e-04
 Reference value :  1.72750e-04
 Reference value :  1.72750e-04
 Reference value :  1.72750e-04
 Reference value :  1.72751e-04
 Reference value :  1.72752e-04
 Reference value :  1.72753e-04
 Reference value :  1.72754e-04
 Reference value :  1.72755e-04
 Reference value :  1.72756e-04
 Reference value :  1.72761e-04
 Reference value :  1.72803e-04
 Reference value :  1.73000e-04
 Reference value :  1.73000e-04
 Reference value :  1.73000e-04
 Reference value :  1.73001e-04
 Reference value :  1.73001e-04
 Reference value :  1.73002e-04
 Reference value :  1.73003e-04
 Reference value :  1.73003e-04
 Reference value :  1.73004e-04
 Reference value :  1.73005e-04
 Reference value :  1.73007e-04
 Reference value :  1.73010e-04
 Reference value :  1.73013e-04
 Reference value :  1.73015e-04
 Reference value :  1.73016e-04
 Reference value :  1.73019e-04
 Reference value :  1.73024e-04
 Reference value :  1.73051e-04
 Reference value :  1.73093e-04
 Reference value :  1.73158e-04
 Reference value :  1.73250e-04
 Reference value :  1.73250e-04
 Reference value :  1.73250e-04
 Reference value :  1.73250e-04
 Reference value :  1.73252e-04
 Reference value :  1.73253e-04
 Reference value :  1.73254e-04
 Reference value :  1.73255e-04
 Reference value :  1.73258e-04
 Reference value :  1.73272e-04
 Reference value :  1.73470e-04
 Reference value :  1.73500e-04
 Reference value :  1.73500e-04
 Reference value :  1.73500e-04
 Reference value :  1.73501e-04
 Reference value :  1.73501e-04
 Reference value :  1.73502e-04
 Reference value :  1.73503e-04
 Reference value :  1.73505e-04
 Reference value :  1.73506e-04
 Reference value :  1.73508e-04
 Reference value :  1.73511e-04
 Reference value :  1.73541e-04
 Reference value :  1.73750e-04
 Reference value :  1.73750e-04
 Reference value :  1.73750e-04
 Reference value :  1.73752e-04
 Reference value :  1.73753e-04
 Reference value :  1.73754e-04
 Reference value :  1.73755e-04
 Reference value :  1.73759e-04
 Reference value :  1.73781e-04
 Reference value :  1.73936e-04
 Reference value :  1.74000e-04
 Reference value :  1.74000e-04
 Reference value :  1.74000e-04
 Reference value :  1.74001e-04
 Reference value :  1.74002e-04
 Reference value :  1.74003e-04
 Reference value :  1.74003e-04
 Reference value :  1.74005e-04
 Reference value :  1.74006e-04
 Reference value :  1.74010e-04
 Reference value :  1.74013e-04
 Reference value :  1.74016e-04
 Reference value :  1.74018e-04
 Reference value :  1.74020e-04
 Reference value :  1.74029e-04
 Reference value :  1.74045e-04
 Reference value :  1.74062e-04
 Reference value :  1.74074e-04
 Reference value :  1.74094e-04
 Reference value :  1.74225e-04
 Reference value :  1.74250e-04
 Reference value :  1.74250e-04
 Reference value :  1.74251e-04
 Reference value :  1.74252e-04
 Reference value :  1.74254e-04
 Reference value :  1.74256e-04
 Reference value :  1.74263e-04
 Reference value :  1.74312e-04
 Reference value :  1.74500e-04
 Reference value :  1.74500e-04
 Reference value :  1.74500e-04
 Reference value :  1.74501e-04
 Reference value :  1.74502e-04
 Reference value :  1.74503e-04
 Reference value :  1.74505e-04
 Reference value :  1.74506e-04
 Reference value :  1.74509e-04
 Reference value :  1.74512e-04
 Reference value :  1.74540e-04
 Reference value :  1.74750e-04
 Reference value :  1.74750e-04
 Reference value :  1.74750e-04
 Reference value :  1.74751e-04
 Reference value :  1.74752e-04
 Reference value :  1.74754e-04
 Reference value :  1.74755e-04
 Reference value :  1.74756e-04
 Reference value :  1.74760e-04
 Reference value :  1.74784e-04
 Reference value :  1.75000e-04
 Reference value :  1.75000e-04
 Reference value :  1.75001e-04
 Reference value :  1.75002e-04
 Reference value :  1.75003e-04
 Reference value :  1.75005e-04
 Reference value :  1.75006e-04
 Reference value :  1.75007e-04
 Reference value :  1.75009e-04
 Reference value :  1.75010e-04
 Reference value :  1.75012e-04
 Reference value :  1.75014e-04
 Reference value :  1.75015e-04
 Reference value :  1.75018e-04
 Reference value :  1.75023e-04
 Reference value :  1.75030e-04
 Reference value :  1.75034e-04
 Reference value :  1.75042e-04
 Reference value :  1.75072e-04
 Reference value :  1.75131e-04
 Reference value :  1.75204e-04
 Reference value :  1.75250e-04
 Reference value :  1.75250e-04
 Reference value :  1.75252e-04
 Reference value :  1.75253e-04
 Reference value :  1.75254e-04
 Reference value :  1.75256e-04
 Reference value :  1.75272e-04
 Reference value :  1.75500e-04
 Reference value :  1.75500e-04
 Reference value :  1.75500e-04
 Reference value :  1.75501e-04
 Reference value :  1.75502e-04
 Reference value :  1.75503e-04
 Reference value :  1.75505e-04
 Reference value :  1.75506e-04
 Reference value :  1.75509e-04
 Reference value :  1.75514e-04
 Reference value :  1.75632e-04
 Reference value :  1.75750e-04
 Reference value :  1.75750e-04
 Reference value :  1.75752e-04
 Reference value :  1.75753e-04
 Reference value :  1.75755e-04
 Reference value :  1.75757e-04
 Reference value :  1.75781e-04
 Reference value :  1.76000e-04
 Reference value :  1.76000e-04
 Reference value :  1.76000e-04
 Reference value :  1.76001e-04
 Reference value :  1.76001e-04
 Reference value :  1.76003e-04
 Reference value :  1.76004e-04
 Reference value :  1.76005e-04
 Reference value :  1.76009e-04
 Reference value :  1.76012e-04
 Reference value :  1.76015e-04
 Reference value :  1.76018e-04
 Reference value :  1.76022e-04
 Reference value :  1.76059e-04
 Reference value :  1.76250e-04
 Reference value :  1.76250e-04
 Reference value :  1.76250e-04
 Reference value :  1.76251e-04
 Reference value :  1.76252e-04
 Reference value :  1.76253e-04
 Reference value :  1.76254e-04
 Reference value :  1.76255e-04
 Reference value :  1.76256e-04
 Reference value :  1.76260e-04
 Reference value :  1.76272e-04
 Reference value :  1.76365e-04
 Reference value :  1.76500e-04
 Reference value :  1.76500e-04
 Reference value :  1.76500e-04
 Reference value :  1.76500e-04
 Reference value :  1.76501e-04
 Reference value :  1.76501e-04
 Reference value :  1.76502e-04
 Reference value :  1.76503e-04
 Reference value :  1.76503e-04
 Reference value :  1.76504e-04
 Reference value :  1.76506e-04
 Reference value :  1.76506e-04
 Reference value :  1.76508e-04
 Reference value :  1.76510e-04
 Reference value :  1.76512e-04
 Reference value :  1.76526e-04
 Reference value :  1.76627e-04
 Reference value :  1.76750e-04
 Reference value :  1.76750e-04
 Reference value :  1.76750e-04
 Reference value :  1.76750e-04
 Reference value :  1.76751e-04
 Reference value :  1.76752e-04
 Reference value :  1.76753e-04
 Reference value :  1.76754e-04
 Reference value :  1.76755e-04
 Reference value :  1.76756e-04
 Reference value :  1.76759e-04
 Reference value :  1.76770e-04
 Reference value :  1.76847e-04
 Reference value :  1.77000e-04
 Reference value :  1.77000e-04
 Reference value :  1.77000e-04
 Reference value :  1.77000e-04
 Reference value :  1.77001e-04
 Reference value :  1.77002e-04
 Reference value :  1.77003e-04
 Reference value :  1.77003e-04
 Reference value :  1.77004e-04
 Reference value :  1.77005e-04
 Reference value :  1.77006e-04
 Reference value :  1.77009e-04
 Reference value :  1.77010e-04
 Reference value :  1.77012e-04
 Reference value :  1.77013e-04
 Reference value :  1.77015e-04
 Reference value :  1.77016e-04
 Reference value :  1.77016e-04
 Reference value :  1.77019e-04
 Reference value :  1.77024e-04
 Reference value :  1.77050e-04
 Reference value :  1.77175e-04
 Reference value :  1.77250e-04
 Reference value :  1.77250e-04
 Reference value :  1.77250e-04
 Reference value :  1.77251e-04
 Reference value :  1.77252e-04
 Reference value :  1.77254e-04
 Reference value :  1.77255e-04
 Reference value :  1.77258e-04
 Reference value :  1.77272e-04
 Reference value :  1.77470e-04
 Reference value :  1.77500e-04
 Reference value :  1.77500e-04
 Reference value :  1.77500e-04
 Reference value :  1.77501e-04
 Reference value :  1.77502e-04
 Reference value :  1.77503e-04
 Reference value :  1.77503e-04
 Reference value :  1.77505e-04
 Reference value :  1.77506e-04
 Reference value :  1.77506e-04
 Reference value :  1.77508e-04
 Reference value :  1.77510e-04
 Reference value :  1.77512e-04
 Reference value :  1.77526e-04
 Reference value :  1.77632e-04
 Reference value :  1.77750e-04
 Reference value :  1.77750e-04
 Reference value :  1.77750e-04
 Reference value :  1.77751e-04
 Reference value :  1.77752e-04
 Reference value :  1.77753e-04
 Reference value :  1.77754e-04
 Reference value :  1.77755e-04
 Reference value :  1.77756e-04
 Reference value :  1.77761e-04
 Reference value :  1.77781e-04
 Reference value :  1.77933e-04
 Reference value :  1.78000e-04
 Reference value :  1.78000e-04
 Reference value :  1.78000e-04
 Reference value :  1.78001e-04
 Reference value :  1.78002e-04
 Reference value :  1.78003e-04
 Reference value :  1.78003e-04
 Reference value :  1.78004e-04
 Reference value :  1.78005e-04
 Reference value :  1.78007e-04
 Reference value :  1.78008e-04
 Reference value :  1.78010e-04
 Reference value :  1.78018e-04
 Reference value :  1.78072e-04
 Reference value :  1.78250e-04
 Reference value :  1.78250e-04
 Reference value :  1.78250e-04
 Reference value :  1.78250e-04
 Reference value :  1.78252e-04
 Reference value :  1.78253e-04
 Reference value :  1.78254e-04
 Reference value :  1.78257e-04
 Reference value :  1.78260e-04
 Reference value :  1.78274e-04
 Reference value :  1.78289e-04
 Reference value :  1.78379e-04
No. of Data Rows : 25993
ngspice-44 done
