
Note: Compatibility modes selected: hs a


Circuit: ** sch_path: /home/audrey/cace/sar-adc-using-sky130-pdk/runs/run_2025-08-29_17-38-50/parameters/power/run_07/power_consumption.sch

option SCALE: Scale is set to 1e-06 for instance and model parameters
option SCALE: Scale is set to 1e-06 for instance and model parameters
option SCALE: Scale is set to 1e-06 for instance and model parameters
option SCALE: Scale is set to 1e-06 for instance and model parameters
Doing analysis at TEMP = 27.000000 and TNOM = 27.000000

Using KLU as Direct Linear Solver
Operating point simulation skipped by 'uic',
  now using transient initial conditions.
 Reference value :  5.00000e-12
 Reference value :  5.42000e-12
 Reference value :  8.69885e-12
 Reference value :  2.22229e-11
 Reference value :  1.06653e-10
 Reference value :  5.00000e-10
 Reference value :  6.20334e-10
 Reference value :  7.57858e-10
 Reference value :  1.36621e-09
 Reference value :  2.33194e-09
 Reference value :  2.89800e-09
 Reference value :  5.70923e-09
 Reference value :  6.64136e-09
 Reference value :  8.39575e-09
 Reference value :  9.88404e-09
 Reference value :  1.20461e-08
 Reference value :  1.45114e-08
 Reference value :  1.61920e-08
 Reference value :  1.80419e-08
 Reference value :  2.18601e-08
 Reference value :  2.92283e-08
 Reference value :  3.73213e-08
 Reference value :  6.14245e-08
 Reference value :  1.96072e-07
 Reference value :  4.04402e-07
 Reference value :  4.40410e-07
 Reference value :  5.00000e-07
 Reference value :  5.12571e-07
 Reference value :  5.30363e-07
 Reference value :  6.36337e-07
 Reference value :  1.00055e-06
 Reference value :  1.00100e-06
 Reference value :  1.00121e-06
 Reference value :  1.00140e-06
 Reference value :  1.00201e-06
 Reference value :  1.00297e-06
 Reference value :  1.00449e-06
 Reference value :  1.00511e-06
 Reference value :  1.00651e-06
 Reference value :  1.00826e-06
 Reference value :  1.01125e-06
 Reference value :  1.01749e-06
 Reference value :  1.03513e-06
 Reference value :  1.08525e-06
 Reference value :  1.22909e-06
 Reference value :  1.64660e-06
 Reference value :  2.00015e-06
 Reference value :  2.00050e-06
 Reference value :  2.00061e-06
 Reference value :  2.00144e-06
 Reference value :  2.00228e-06
 Reference value :  2.00326e-06
 Reference value :  2.00388e-06
 Reference value :  2.00525e-06
 Reference value :  2.00710e-06
 Reference value :  2.00834e-06
 Reference value :  2.01119e-06
 Reference value :  2.01413e-06
 Reference value :  2.01806e-06
 Reference value :  2.02008e-06
 Reference value :  2.02666e-06
 Reference value :  2.03194e-06
 Reference value :  2.05516e-06
 Reference value :  2.17975e-06
 Reference value :  2.46790e-06
 Reference value :  3.00050e-06
 Reference value :  3.00055e-06
 Reference value :  3.00085e-06
 Reference value :  3.00103e-06
 Reference value :  3.00123e-06
 Reference value :  3.00176e-06
 Reference value :  3.00230e-06
 Reference value :  3.00283e-06
 Reference value :  3.00413e-06
 Reference value :  3.00475e-06
 Reference value :  3.00547e-06
 Reference value :  3.00612e-06
 Reference value :  3.00767e-06
 Reference value :  3.00949e-06
 Reference value :  3.01191e-06
 Reference value :  3.01942e-06
 Reference value :  3.03354e-06
 Reference value :  3.06832e-06
 Reference value :  3.16350e-06
 Reference value :  3.94063e-06
 Reference value :  4.00015e-06
 Reference value :  4.00054e-06
 Reference value :  4.00103e-06
 Reference value :  4.00188e-06
 Reference value :  4.00285e-06
 Reference value :  4.00397e-06
 Reference value :  4.00579e-06
 Reference value :  4.00687e-06
 Reference value :  4.00842e-06
 Reference value :  4.01078e-06
 Reference value :  4.01175e-06
 Reference value :  4.01280e-06
 Reference value :  4.01381e-06
 Reference value :  4.01563e-06
 Reference value :  4.01754e-06
 Reference value :  4.02103e-06
 Reference value :  4.02442e-06
 Reference value :  4.05327e-06
 Reference value :  4.15363e-06
 Reference value :  4.17999e-06
 Reference value :  4.19205e-06
 Reference value :  4.20341e-06
 Reference value :  4.22935e-06
 Reference value :  4.34392e-06
 Reference value :  4.53712e-06
 Reference value :  4.86370e-06
 Reference value :  5.00065e-06
 Reference value :  5.00100e-06
 Reference value :  5.00110e-06
 Reference value :  5.00150e-06
 Reference value :  5.00230e-06
 Reference value :  5.00339e-06
 Reference value :  5.00479e-06
 Reference value :  5.00629e-06
 Reference value :  5.00811e-06
 Reference value :  5.01382e-06
 Reference value :  5.03958e-06
 Reference value :  5.20536e-06
 Reference value :  6.00005e-06
 Reference value :  6.00050e-06
 Reference value :  6.00103e-06
 Reference value :  6.00188e-06
 Reference value :  6.00286e-06
 Reference value :  6.00396e-06
 Reference value :  6.00532e-06
 Reference value :  6.00625e-06
 Reference value :  6.00795e-06
 Reference value :  6.00880e-06
 Reference value :  6.01068e-06
 Reference value :  6.02040e-06
 Reference value :  6.30689e-06
 Reference value :  7.00055e-06
 Reference value :  7.00085e-06
 Reference value :  7.00103e-06
 Reference value :  7.00150e-06
 Reference value :  7.00176e-06
 Reference value :  7.00339e-06
 Reference value :  7.00413e-06
 Reference value :  7.00475e-06
 Reference value :  7.00612e-06
 Reference value :  7.00765e-06
 Reference value :  7.00857e-06
 Reference value :  7.01267e-06
 Reference value :  7.02226e-06
 Reference value :  7.08888e-06
 Reference value :  7.59198e-06
 Reference value :  8.00005e-06
 Reference value :  8.00050e-06
 Reference value :  8.00075e-06
 Reference value :  8.00144e-06
 Reference value :  8.00233e-06
 Reference value :  8.00336e-06
 Reference value :  8.00460e-06
 Reference value :  8.00594e-06
 Reference value :  8.00648e-06
 Reference value :  8.00792e-06
 Reference value :  8.01032e-06
 Reference value :  8.01233e-06
 Reference value :  8.01384e-06
 Reference value :  8.01676e-06
 Reference value :  8.01927e-06
 Reference value :  8.02192e-06
 Reference value :  8.02582e-06
 Reference value :  8.04378e-06
 Reference value :  8.08439e-06
 Reference value :  8.18200e-06
 Reference value :  8.22810e-06
 Reference value :  8.34002e-06
 Reference value :  8.45031e-06
 Reference value :  8.57813e-06
 Reference value :  8.85379e-06
 Reference value :  9.00050e-06
 Reference value :  9.00055e-06
 Reference value :  9.00085e-06
 Reference value :  9.00100e-06
 Reference value :  9.00110e-06
 Reference value :  9.00150e-06
 Reference value :  9.00230e-06
 Reference value :  9.00339e-06
 Reference value :  9.00479e-06
 Reference value :  9.00629e-06
 Reference value :  9.00811e-06
 Reference value :  9.01382e-06
 Reference value :  9.03921e-06
 Reference value :  9.19890e-06
 Reference value :  1.00000e-05
 Reference value :  1.00003e-05
 Reference value :  1.00005e-05
 Reference value :  1.00007e-05
 Reference value :  1.00014e-05
 Reference value :  1.00023e-05
 Reference value :  1.00034e-05
 Reference value :  1.00040e-05
 Reference value :  1.00046e-05
 Reference value :  1.00063e-05
 Reference value :  1.00080e-05
 Reference value :  1.00097e-05
 Reference value :  1.00119e-05
 Reference value :  1.00204e-05
 Reference value :  1.00846e-05
 Reference value :  1.05986e-05
 Reference value :  1.10006e-05
 Reference value :  1.10010e-05
 Reference value :  1.10012e-05
 Reference value :  1.10018e-05
 Reference value :  1.10028e-05
 Reference value :  1.10041e-05
 Reference value :  1.10048e-05
 Reference value :  1.10061e-05
 Reference value :  1.10076e-05
 Reference value :  1.10104e-05
 Reference value :  1.10223e-05
 Reference value :  1.10879e-05
 Reference value :  1.12994e-05
 Reference value :  1.20000e-05
 Reference value :  1.20003e-05
 Reference value :  1.20005e-05
 Reference value :  1.20007e-05
 Reference value :  1.20014e-05
 Reference value :  1.20019e-05
 Reference value :  1.20023e-05
 Reference value :  1.20029e-05
 Reference value :  1.20040e-05
 Reference value :  1.20046e-05
 Reference value :  1.20053e-05
 Reference value :  1.20071e-05
 Reference value :  1.20103e-05
 Reference value :  1.20138e-05
 Reference value :  1.20168e-05
 Reference value :  1.20193e-05
 Reference value :  1.20238e-05
 Reference value :  1.20379e-05
 Reference value :  1.20454e-05
 Reference value :  1.20524e-05
 Reference value :  1.20587e-05
 Reference value :  1.20736e-05
 Reference value :  1.21141e-05
 Reference value :  1.23459e-05
 Reference value :  1.30006e-05
 Reference value :  1.30010e-05
 Reference value :  1.30012e-05
 Reference value :  1.30018e-05
 Reference value :  1.30028e-05
 Reference value :  1.30047e-05
 Reference value :  1.30060e-05
 Reference value :  1.30088e-05
 Reference value :  1.30239e-05
 Reference value :  1.31609e-05
 Reference value :  1.40002e-05
 Reference value :  1.40006e-05
 Reference value :  1.40014e-05
 Reference value :  1.40023e-05
 Reference value :  1.40039e-05
 Reference value :  1.40061e-05
 Reference value :  1.40078e-05
 Reference value :  1.40097e-05
 Reference value :  1.40134e-05
 Reference value :  1.40352e-05
 Reference value :  1.43212e-05
 Reference value :  1.50007e-05
 Reference value :  1.50011e-05
 Reference value :  1.50018e-05
 Reference value :  1.50034e-05
 Reference value :  1.50048e-05
 Reference value :  1.50068e-05
 Reference value :  1.50095e-05
 Reference value :  1.50137e-05
 Reference value :  1.50330e-05
 Reference value :  1.51534e-05
 Reference value :  1.60000e-05
 Reference value :  1.60005e-05
 Reference value :  1.60010e-05
 Reference value :  1.60023e-05
 Reference value :  1.60040e-05
 Reference value :  1.60052e-05
 Reference value :  1.60063e-05
 Reference value :  1.60084e-05
 Reference value :  1.60108e-05
 Reference value :  1.60118e-05
 Reference value :  1.60141e-05
 Reference value :  1.60178e-05
 Reference value :  1.60201e-05
 Reference value :  1.60250e-05
 Reference value :  1.60567e-05
 Reference value :  1.60872e-05
 Reference value :  1.61257e-05
 Reference value :  1.61577e-05
 Reference value :  1.62228e-05
 Reference value :  1.63976e-05
 Reference value :  1.70006e-05
 Reference value :  1.70009e-05
 Reference value :  1.70011e-05
 Reference value :  1.70014e-05
 Reference value :  1.70021e-05
 Reference value :  1.70026e-05
 Reference value :  1.70046e-05
 Reference value :  1.70059e-05
 Reference value :  1.70066e-05
 Reference value :  1.70100e-05
 Reference value :  1.70208e-05
 Reference value :  1.70864e-05
 Reference value :  1.75878e-05
 Reference value :  1.80002e-05
 Reference value :  1.80004e-05
 Reference value :  1.80005e-05
 Reference value :  1.80007e-05
 Reference value :  1.80016e-05
 Reference value :  1.80022e-05
 Reference value :  1.80027e-05
 Reference value :  1.80040e-05
 Reference value :  1.80047e-05
 Reference value :  1.80063e-05
 Reference value :  1.80082e-05
 Reference value :  1.80091e-05
 Reference value :  1.80100e-05
 Reference value :  1.80138e-05
 Reference value :  1.80192e-05
 Reference value :  1.80546e-05
 Reference value :  1.86310e-05
 Reference value :  1.90007e-05
 Reference value :  1.90010e-05
 Reference value :  1.90012e-05
 Reference value :  1.90014e-05
 Reference value :  1.90026e-05
 Reference value :  1.90037e-05
 Reference value :  1.90052e-05
 Reference value :  1.90065e-05
 Reference value :  1.90072e-05
 Reference value :  1.90081e-05
 Reference value :  1.90101e-05
 Reference value :  1.90145e-05
 Reference value :  1.90290e-05
 Reference value :  1.91048e-05
 Reference value :  1.93606e-05
 Reference value :  2.00000e-05
 Reference value :  2.00004e-05
 Reference value :  2.00005e-05
 Reference value :  2.00006e-05
 Reference value :  2.00007e-05
 Reference value :  2.00016e-05
 Reference value :  2.00027e-05
 Reference value :  2.00040e-05
 Reference value :  2.00052e-05
 Reference value :  2.00064e-05
 Reference value :  2.00077e-05
 Reference value :  2.00097e-05
 Reference value :  2.00120e-05
 Reference value :  2.00143e-05
 Reference value :  2.00163e-05
 Reference value :  2.00185e-05
 Reference value :  2.00222e-05
 Reference value :  2.00262e-05
 Reference value :  2.00344e-05
 Reference value :  2.00431e-05
 Reference value :  2.00483e-05
 Reference value :  2.00521e-05
 Reference value :  2.00561e-05
 Reference value :  2.00708e-05
 Reference value :  2.01147e-05
 Reference value :  2.01961e-05
 Reference value :  2.02418e-05
 Reference value :  2.02742e-05
 Reference value :  2.03040e-05
 Reference value :  2.03728e-05
 Reference value :  2.05830e-05
 Reference value :  2.10005e-05
 Reference value :  2.10008e-05
 Reference value :  2.10011e-05
 Reference value :  2.10014e-05
 Reference value :  2.10021e-05
 Reference value :  2.10026e-05
 Reference value :  2.10037e-05
 Reference value :  2.10052e-05
 Reference value :  2.10075e-05
 Reference value :  2.10124e-05
 Reference value :  2.10528e-05
 Reference value :  2.16205e-05
 Reference value :  2.20001e-05
 Reference value :  2.20005e-05
 Reference value :  2.20010e-05
 Reference value :  2.20022e-05
 Reference value :  2.20033e-05
 Reference value :  2.20047e-05
 Reference value :  2.20063e-05
 Reference value :  2.20082e-05
 Reference value :  2.20100e-05
 Reference value :  2.20138e-05
 Reference value :  2.20344e-05
 Reference value :  2.23029e-05
 Reference value :  2.30005e-05
 Reference value :  2.30008e-05
 Reference value :  2.30010e-05
 Reference value :  2.30014e-05
 Reference value :  2.30026e-05
 Reference value :  2.30037e-05
 Reference value :  2.30052e-05
 Reference value :  2.30065e-05
 Reference value :  2.30081e-05
 Reference value :  2.30101e-05
 Reference value :  2.30145e-05
 Reference value :  2.30408e-05
 Reference value :  2.33609e-05
 Reference value :  2.40002e-05
 Reference value :  2.40005e-05
 Reference value :  2.40010e-05
 Reference value :  2.40027e-05
 Reference value :  2.40046e-05
 Reference value :  2.40059e-05
 Reference value :  2.40064e-05
 Reference value :  2.40086e-05
 Reference value :  2.40120e-05
 Reference value :  2.40153e-05
 Reference value :  2.40174e-05
 Reference value :  2.40197e-05
 Reference value :  2.40221e-05
 Reference value :  2.40240e-05
 Reference value :  2.40260e-05
 Reference value :  2.40282e-05
 Reference value :  2.40320e-05
 Reference value :  2.40358e-05
 Reference value :  2.40555e-05
 Reference value :  2.41539e-05
 Reference value :  2.45342e-05
 Reference value :  2.50005e-05
 Reference value :  2.50008e-05
 Reference value :  2.50010e-05
 Reference value :  2.50014e-05
 Reference value :  2.50026e-05
 Reference value :  2.50046e-05
 Reference value :  2.50052e-05
 Reference value :  2.50066e-05
 Reference value :  2.50100e-05
 Reference value :  2.50315e-05
 Reference value :  2.53011e-05
 Reference value :  2.60002e-05
 Reference value :  2.60005e-05
 Reference value :  2.60007e-05
 Reference value :  2.60022e-05
 Reference value :  2.60033e-05
 Reference value :  2.60046e-05
 Reference value :  2.60061e-05
 Reference value :  2.60079e-05
 Reference value :  2.60098e-05
 Reference value :  2.60119e-05
 Reference value :  2.60145e-05
 Reference value :  2.60267e-05
 Reference value :  2.60883e-05
 Reference value :  2.65665e-05
 Reference value :  2.70007e-05
 Reference value :  2.70010e-05
 Reference value :  2.70011e-05
 Reference value :  2.70014e-05
 Reference value :  2.70026e-05
 Reference value :  2.70037e-05
 Reference value :  2.70052e-05
 Reference value :  2.70065e-05
 Reference value :  2.70081e-05
 Reference value :  2.70138e-05
 Reference value :  2.70274e-05
 Reference value :  2.70797e-05
 Reference value :  2.75678e-05
 Reference value :  2.80000e-05
 Reference value :  2.80004e-05
 Reference value :  2.80005e-05
 Reference value :  2.80010e-05
 Reference value :  2.80027e-05
 Reference value :  2.80040e-05
 Reference value :  2.80052e-05
 Reference value :  2.80059e-05
 Reference value :  2.80064e-05
 Reference value :  2.80078e-05
 Reference value :  2.80102e-05
 Reference value :  2.80121e-05
 Reference value :  2.80136e-05
 Reference value :  2.80163e-05
 Reference value :  2.80186e-05
 Reference value :  2.80212e-05
 Reference value :  2.80249e-05
 Reference value :  2.80330e-05
 Reference value :  2.80508e-05
 Reference value :  2.82206e-05
 Reference value :  2.90006e-05
 Reference value :  2.90010e-05
 Reference value :  2.90012e-05
 Reference value :  2.90014e-05
 Reference value :  2.90026e-05
 Reference value :  2.90037e-05
 Reference value :  2.90052e-05
 Reference value :  2.90074e-05
 Reference value :  2.90100e-05
 Reference value :  2.90318e-05
 Reference value :  2.93029e-05
 Reference value :  3.00001e-05
 Reference value :  3.00005e-05
 Reference value :  3.00007e-05
 Reference value :  3.00022e-05
 Reference value :  3.00027e-05
 Reference value :  3.00040e-05
 Reference value :  3.00046e-05
 Reference value :  3.00054e-05
 Reference value :  3.00079e-05
 Reference value :  3.00098e-05
 Reference value :  3.00119e-05
 Reference value :  3.00170e-05
 Reference value :  3.00266e-05
 Reference value :  3.00369e-05
 Reference value :  3.01554e-05
 Reference value :  3.10005e-05
 Reference value :  3.10008e-05
 Reference value :  3.10010e-05
 Reference value :  3.10011e-05
 Reference value :  3.10014e-05
 Reference value :  3.10026e-05
 Reference value :  3.10046e-05
 Reference value :  3.10052e-05
 Reference value :  3.10072e-05
 Reference value :  3.10081e-05
 Reference value :  3.10091e-05
 Reference value :  3.10137e-05
 Reference value :  3.10795e-05
 Reference value :  3.12881e-05
 Reference value :  3.20000e-05
 Reference value :  3.20001e-05
 Reference value :  3.20005e-05
 Reference value :  3.20006e-05
 Reference value :  3.20010e-05
 Reference value :  3.20022e-05
 Reference value :  3.20027e-05
 Reference value :  3.20040e-05
 Reference value :  3.20052e-05
 Reference value :  3.20064e-05
 Reference value :  3.20078e-05
 Reference value :  3.20086e-05
 Reference value :  3.20095e-05
 Reference value :  3.20115e-05
 Reference value :  3.20261e-05
 Reference value :  3.22059e-05
 Reference value :  3.27755e-05
 Reference value :  3.30007e-05
 Reference value :  3.30010e-05
 Reference value :  3.30012e-05
 Reference value :  3.30015e-05
 Reference value :  3.30022e-05
 Reference value :  3.30027e-05
 Reference value :  3.30032e-05
 Reference value :  3.30048e-05
 Reference value :  3.30057e-05
 Reference value :  3.30078e-05
 Reference value :  3.30132e-05
 Reference value :  3.30304e-05
 Reference value :  3.30638e-05
 Reference value :  3.32709e-05
 Reference value :  3.40000e-05
No. of Data Rows : 1270
ngspice-44 done
