
Note: Compatibility modes selected: hs a


Circuit: ** sch_path: /home/ece/cace/sar-adc-using-sky130-pdk/runs/run_2025-09-10_19-58-20/parameters/sampling_rate/run_00/sampling_rate.sch

option SCALE: Scale is set to 1e-06 for instance and model parameters
option SCALE: Scale is set to 1e-06 for instance and model parameters
option SCALE: Scale is set to 1e-06 for instance and model parameters
option SCALE: Scale is set to 1e-06 for instance and model parameters
Doing analysis at TEMP = 27.000000 and TNOM = 27.000000

Using KLU as Direct Linear Solver
Operating point simulation skipped by 'uic',
  now using transient initial conditions.
 Reference value :  1.00000e-12
 Reference value :  1.08400e-12
 Reference value :  1.73830e-12
 Reference value :  6.32514e-12
 Reference value :  3.16791e-11
 Reference value :  1.04820e-10
 Reference value :  2.49422e-10
 Reference value :  9.57695e-10
 Reference value :  2.52145e-09
 Reference value :  4.21219e-09
 Reference value :  5.94190e-09
 Reference value :  7.94616e-09
 Reference value :  9.71219e-09
 Reference value :  1.38175e-08
 Reference value :  2.30967e-08
 Reference value :  3.21446e-08
 Reference value :  7.93784e-08
 Reference value :  2.50100e-07
 Reference value :  2.50130e-07
 Reference value :  2.50200e-07
 Reference value :  2.50222e-07
 Reference value :  2.50312e-07
 Reference value :  2.50748e-07
 Reference value :  2.51917e-07
 Reference value :  2.53891e-07
 Reference value :  2.55114e-07
 Reference value :  2.57583e-07
 Reference value :  2.66533e-07
 Reference value :  3.39647e-07
 Reference value :  5.00030e-07
 Reference value :  5.00108e-07
 Reference value :  5.00348e-07
 Reference value :  5.01302e-07
 Reference value :  5.02209e-07
 Reference value :  5.03314e-07
 Reference value :  5.05649e-07
 Reference value :  5.09953e-07
 Reference value :  5.12777e-07
 Reference value :  5.16018e-07
 Reference value :  5.19868e-07
 Reference value :  5.41468e-07
 Reference value :  7.50100e-07
 Reference value :  7.50170e-07
 Reference value :  7.50256e-07
 Reference value :  7.50704e-07
 Reference value :  7.52047e-07
 Reference value :  7.54064e-07
 Reference value :  7.55413e-07
 Reference value :  7.57088e-07
 Reference value :  7.60029e-07
 Reference value :  7.65787e-07
 Reference value :  7.84637e-07
 Reference value :  8.60439e-07
 Reference value :  1.00000e-06
 Reference value :  1.00003e-06
 Reference value :  1.00007e-06
 Reference value :  1.00012e-06
 Reference value :  1.00035e-06
 Reference value :  1.00086e-06
 Reference value :  1.00130e-06
 Reference value :  1.00224e-06
 Reference value :  1.00404e-06
 Reference value :  1.00458e-06
 Reference value :  1.00583e-06
 Reference value :  1.00711e-06
 Reference value :  1.00899e-06
 Reference value :  1.01144e-06
 Reference value :  1.01377e-06
 Reference value :  1.01611e-06
 Reference value :  1.01833e-06
 Reference value :  1.02078e-06
 Reference value :  1.02431e-06
 Reference value :  1.03812e-06
 Reference value :  1.17344e-06
 Reference value :  1.25011e-06
 Reference value :  1.25020e-06
 Reference value :  1.25026e-06
 Reference value :  1.25070e-06
 Reference value :  1.25203e-06
 Reference value :  1.25327e-06
 Reference value :  1.25464e-06
 Reference value :  1.25687e-06
 Reference value :  1.25951e-06
 Reference value :  1.27068e-06
 Reference value :  1.33295e-06
 Reference value :  1.50001e-06
 Reference value :  1.50010e-06
 Reference value :  1.50016e-06
 Reference value :  1.50052e-06
 Reference value :  1.50130e-06
 Reference value :  1.50221e-06
 Reference value :  1.50405e-06
 Reference value :  1.50561e-06
 Reference value :  1.50754e-06
 Reference value :  1.50947e-06
 Reference value :  1.51158e-06
 Reference value :  1.51413e-06
 Reference value :  1.54327e-06
 Reference value :  1.72620e-06
 Reference value :  1.75013e-06
 Reference value :  1.75021e-06
 Reference value :  1.75045e-06
 Reference value :  1.75153e-06
 Reference value :  1.75255e-06
 Reference value :  1.75465e-06
 Reference value :  1.75697e-06
 Reference value :  1.75996e-06
 Reference value :  1.76906e-06
 Reference value :  1.82107e-06
 Reference value :  2.00001e-06
 Reference value :  2.00010e-06
 Reference value :  2.00022e-06
 Reference value :  2.00130e-06
 Reference value :  2.00277e-06
 Reference value :  2.00457e-06
 Reference value :  2.00583e-06
 Reference value :  2.00712e-06
 Reference value :  2.01046e-06
 Reference value :  2.01145e-06
 Reference value :  2.01377e-06
 Reference value :  2.01612e-06
 Reference value :  2.01836e-06
 Reference value :  2.02086e-06
 Reference value :  2.03121e-06
 Reference value :  2.10962e-06
 Reference value :  2.25011e-06
 Reference value :  2.25020e-06
 Reference value :  2.25032e-06
 Reference value :  2.25106e-06
 Reference value :  2.25204e-06
 Reference value :  2.25405e-06
 Reference value :  2.25535e-06
 Reference value :  2.25693e-06
 Reference value :  2.26525e-06
 Reference value :  2.33226e-06
 Reference value :  2.50001e-06
 Reference value :  2.50011e-06
 Reference value :  2.50035e-06
 Reference value :  2.50130e-06
 Reference value :  2.50221e-06
 Reference value :  2.50332e-06
 Reference value :  2.50485e-06
 Reference value :  2.50674e-06
 Reference value :  2.50754e-06
 Reference value :  2.50947e-06
 Reference value :  2.51158e-06
 Reference value :  2.51412e-06
 Reference value :  2.52859e-06
 Reference value :  2.61915e-06
 Reference value :  2.75011e-06
 Reference value :  2.75020e-06
 Reference value :  2.75045e-06
 Reference value :  2.75106e-06
 Reference value :  2.75202e-06
 Reference value :  2.75403e-06
 Reference value :  2.75605e-06
 Reference value :  2.75884e-06
 Reference value :  2.76316e-06
 Reference value :  2.78376e-06
 Reference value :  2.82105e-06
 Reference value :  3.00000e-06
 Reference value :  3.00007e-06
 Reference value :  3.00011e-06
 Reference value :  3.00016e-06
 Reference value :  3.00035e-06
 Reference value :  3.00086e-06
 Reference value :  3.00130e-06
 Reference value :  3.00224e-06
 Reference value :  3.00341e-06
 Reference value :  3.00457e-06
 Reference value :  3.00583e-06
 Reference value :  3.00712e-06
 Reference value :  3.01047e-06
 Reference value :  3.01145e-06
 Reference value :  3.01377e-06
 Reference value :  3.01614e-06
 Reference value :  3.01725e-06
 Reference value :  3.01840e-06
 Reference value :  3.02096e-06
 Reference value :  3.04026e-06
 Reference value :  3.21978e-06
 Reference value :  3.25017e-06
 Reference value :  3.25026e-06
 Reference value :  3.25105e-06
 Reference value :  3.25254e-06
 Reference value :  3.25403e-06
 Reference value :  3.25530e-06
 Reference value :  3.25684e-06
 Reference value :  3.26497e-06
 Reference value :  3.29864e-06
 Reference value :  3.50000e-06
 Reference value :  3.50007e-06
 Reference value :  3.50016e-06
 Reference value :  3.50086e-06
 Reference value :  3.50130e-06
 Reference value :  3.50221e-06
 Reference value :  3.50405e-06
 Reference value :  3.50561e-06
 Reference value :  3.50754e-06
 Reference value :  3.50947e-06
 Reference value :  3.51158e-06
 Reference value :  3.51412e-06
 Reference value :  3.52849e-06
 Reference value :  3.61773e-06
 Reference value :  3.75011e-06
 Reference value :  3.75017e-06
 Reference value :  3.75022e-06
 Reference value :  3.75045e-06
 Reference value :  3.75105e-06
 Reference value :  3.75152e-06
 Reference value :  3.75202e-06
 Reference value :  3.75326e-06
 Reference value :  3.75464e-06
 Reference value :  3.75604e-06
 Reference value :  3.75695e-06
 Reference value :  3.75883e-06
 Reference value :  3.76124e-06
 Reference value :  3.76902e-06
 Reference value :  3.78374e-06
 Reference value :  3.91552e-06
 Reference value :  4.00003e-06
 Reference value :  4.00011e-06
 Reference value :  4.00022e-06
 Reference value :  4.00052e-06
 Reference value :  4.00130e-06
 Reference value :  4.00224e-06
 Reference value :  4.00340e-06
 Reference value :  4.00457e-06
 Reference value :  4.00583e-06
 Reference value :  4.00712e-06
 Reference value :  4.00901e-06
 Reference value :  4.01146e-06
 Reference value :  4.01378e-06
 Reference value :  4.01615e-06
 Reference value :  4.01844e-06
 Reference value :  4.02248e-06
 Reference value :  4.04111e-06
 Reference value :  4.10589e-06
 Reference value :  4.13512e-06
 Reference value :  4.25011e-06
 Reference value :  4.25020e-06
 Reference value :  4.25032e-06
 Reference value :  4.25106e-06
 Reference value :  4.25203e-06
 Reference value :  4.25328e-06
 Reference value :  4.25466e-06
 Reference value :  4.25690e-06
 Reference value :  4.27095e-06
 Reference value :  4.38675e-06
 Reference value :  4.50003e-06
 Reference value :  4.50012e-06
 Reference value :  4.50052e-06
 Reference value :  4.50130e-06
 Reference value :  4.50221e-06
 Reference value :  4.50405e-06
 Reference value :  4.50561e-06
 Reference value :  4.50754e-06
 Reference value :  4.50947e-06
 Reference value :  4.51158e-06
 Reference value :  4.51412e-06
 Reference value :  4.52080e-06
 Reference value :  4.56710e-06
 Reference value :  4.75010e-06
 Reference value :  4.75013e-06
 Reference value :  4.75020e-06
 Reference value :  4.75026e-06
 Reference value :  4.75070e-06
 Reference value :  4.75202e-06
 Reference value :  4.75325e-06
 Reference value :  4.75464e-06
 Reference value :  4.75694e-06
 Reference value :  4.75882e-06
 Reference value :  4.76315e-06
 Reference value :  4.78373e-06
 Reference value :  4.91574e-06
 Reference value :  5.00007e-06
 Reference value :  5.00012e-06
 Reference value :  5.00035e-06
 Reference value :  5.00130e-06
 Reference value :  5.00224e-06
 Reference value :  5.00340e-06
 Reference value :  5.00457e-06
 Reference value :  5.00583e-06
 Reference value :  5.00712e-06
 Reference value :  5.00901e-06
 Reference value :  5.01146e-06
 Reference value :  5.01378e-06
 Reference value :  5.01619e-06
 Reference value :  5.01849e-06
 Reference value :  5.02112e-06
 Reference value :  5.02766e-06
 Reference value :  5.05459e-06
 Reference value :  5.06996e-06
 Reference value :  5.09353e-06
 Reference value :  5.11225e-06
 Reference value :  5.15620e-06
 Reference value :  5.25010e-06
 Reference value :  5.25017e-06
 Reference value :  5.25022e-06
 Reference value :  5.25032e-06
 Reference value :  5.25070e-06
 Reference value :  5.25153e-06
 Reference value :  5.25256e-06
 Reference value :  5.25404e-06
 Reference value :  5.25533e-06
 Reference value :  5.25690e-06
 Reference value :  5.26178e-06
 Reference value :  5.27090e-06
 Reference value :  5.38611e-06
 Reference value :  5.50001e-06
 Reference value :  5.50010e-06
 Reference value :  5.50016e-06
 Reference value :  5.50052e-06
 Reference value :  5.50130e-06
 Reference value :  5.50221e-06
 Reference value :  5.50332e-06
 Reference value :  5.50485e-06
 Reference value :  5.50674e-06
 Reference value :  5.50754e-06
 Reference value :  5.50947e-06
 Reference value :  5.51158e-06
 Reference value :  5.51412e-06
 Reference value :  5.52837e-06
 Reference value :  5.61585e-06
 Reference value :  5.75013e-06
 Reference value :  5.75021e-06
 Reference value :  5.75032e-06
 Reference value :  5.75105e-06
 Reference value :  5.75254e-06
 Reference value :  5.75464e-06
 Reference value :  5.75694e-06
 Reference value :  5.75994e-06
 Reference value :  5.76544e-06
 Reference value :  5.78373e-06
 Reference value :  5.91604e-06
 Reference value :  6.00003e-06
 Reference value :  6.00011e-06
 Reference value :  6.00022e-06
 Reference value :  6.00086e-06
 Reference value :  6.00176e-06
 Reference value :  6.00276e-06
 Reference value :  6.00403e-06
 Reference value :  6.00457e-06
 Reference value :  6.00583e-06
 Reference value :  6.00712e-06
 Reference value :  6.01047e-06
 Reference value :  6.01146e-06
 Reference value :  6.01378e-06
 Reference value :  6.01623e-06
 Reference value :  6.01741e-06
 Reference value :  6.01977e-06
 Reference value :  6.02511e-06
 Reference value :  6.03843e-06
 Reference value :  6.05706e-06
 Reference value :  6.13736e-06
 Reference value :  6.25011e-06
 Reference value :  6.25020e-06
 Reference value :  6.25032e-06
 Reference value :  6.25105e-06
 Reference value :  6.25202e-06
 Reference value :  6.25403e-06
 Reference value :  6.25596e-06
 Reference value :  6.25947e-06
 Reference value :  6.33059e-06
 Reference value :  6.50007e-06
 Reference value :  6.50016e-06
 Reference value :  6.50052e-06
 Reference value :  6.50130e-06
 Reference value :  6.50221e-06
 Reference value :  6.50405e-06
 Reference value :  6.50674e-06
 Reference value :  6.50843e-06
 Reference value :  6.51056e-06
 Reference value :  6.51412e-06
 Reference value :  6.56648e-06
 Reference value :  6.75013e-06
 Reference value :  6.75022e-06
 Reference value :  6.75045e-06
 Reference value :  6.75105e-06
 Reference value :  6.75201e-06
 Reference value :  6.75254e-06
 Reference value :  6.75403e-06
 Reference value :  6.75464e-06
 Reference value :  6.75604e-06
 Reference value :  6.75785e-06
 Reference value :  6.75994e-06
 Reference value :  6.76543e-06
 Reference value :  6.77508e-06
 Reference value :  6.79851e-06
 Reference value :  6.91621e-06
 Reference value :  7.00003e-06
 Reference value :  7.00010e-06
 Reference value :  7.00016e-06
 Reference value :  7.00052e-06
 Reference value :  7.00130e-06
 Reference value :  7.00224e-06
 Reference value :  7.00403e-06
 Reference value :  7.00457e-06
 Reference value :  7.00583e-06
 Reference value :  7.00712e-06
 Reference value :  7.00902e-06
 Reference value :  7.01146e-06
 Reference value :  7.01378e-06
 Reference value :  7.01624e-06
 Reference value :  7.01743e-06
 Reference value :  7.01857e-06
 Reference value :  7.01979e-06
 Reference value :  7.02277e-06
 Reference value :  7.03057e-06
 Reference value :  7.05631e-06
 Reference value :  7.20165e-06
 Reference value :  7.25013e-06
 Reference value :  7.25020e-06
 Reference value :  7.25032e-06
 Reference value :  7.25105e-06
 Reference value :  7.25202e-06
 Reference value :  7.25403e-06
 Reference value :  7.25463e-06
 Reference value :  7.25596e-06
 Reference value :  7.25774e-06
 Reference value :  7.26163e-06
 Reference value :  7.28103e-06
 Reference value :  7.38691e-06
 Reference value :  7.50003e-06
 Reference value :  7.50011e-06
 Reference value :  7.50035e-06
 Reference value :  7.50130e-06
 Reference value :  7.50221e-06
 Reference value :  7.50405e-06
 Reference value :  7.50674e-06
 Reference value :  7.50843e-06
 Reference value :  7.51056e-06
 Reference value :  7.51412e-06
 Reference value :  7.56622e-06
 Reference value :  7.75011e-06
 Reference value :  7.75020e-06
 Reference value :  7.75032e-06
 Reference value :  7.75105e-06
 Reference value :  7.75201e-06
 Reference value :  7.75403e-06
 Reference value :  7.75531e-06
 Reference value :  7.75693e-06
 Reference value :  7.75994e-06
 Reference value :  7.76899e-06
 Reference value :  7.82118e-06
 Reference value :  8.00000e-06
 Reference value :  8.00007e-06
 Reference value :  8.00012e-06
 Reference value :  8.00035e-06
 Reference value :  8.00130e-06
 Reference value :  8.00224e-06
 Reference value :  8.00403e-06
 Reference value :  8.00521e-06
 Reference value :  8.00583e-06
 Reference value :  8.00712e-06
 Reference value :  8.01001e-06
 Reference value :  8.01276e-06
 Reference value :  8.01720e-06
 Reference value :  8.02530e-06
 Reference value :  8.13715e-06
 Reference value :  8.25013e-06
 Reference value :  8.25026e-06
 Reference value :  8.25070e-06
 Reference value :  8.25203e-06
 Reference value :  8.25425e-06
 Reference value :  8.25861e-06
 Reference value :  8.28079e-06
 Reference value :  8.43682e-06
 Reference value :  8.50003e-06
 Reference value :  8.50011e-06
 Reference value :  8.50022e-06
 Reference value :  8.50098e-06
 Reference value :  8.50151e-06
 Reference value :  8.50256e-06
 Reference value :  8.50374e-06
 Reference value :  8.50513e-06
 Reference value :  8.50569e-06
 Reference value :  8.50704e-06
 Reference value :  8.51120e-06
 Reference value :  8.52129e-06
 Reference value :  8.52726e-06
 Reference value :  8.53215e-06
 Reference value :  8.53581e-06
 Reference value :  8.54258e-06
 Reference value :  8.54560e-06
 Reference value :  8.55116e-06
 Reference value :  8.56258e-06
 Reference value :  8.59545e-06
 Reference value :  8.72772e-06
 Reference value :  8.75013e-06
 Reference value :  8.75021e-06
 Reference value :  8.75032e-06
 Reference value :  8.75070e-06
 Reference value :  8.75153e-06
 Reference value :  8.75203e-06
 Reference value :  8.75328e-06
 Reference value :  8.75466e-06
 Reference value :  8.75600e-06
 Reference value :  8.75694e-06
 Reference value :  8.76190e-06
 Reference value :  8.78175e-06
 Reference value :  8.88490e-06
 Reference value :  9.00000e-06
No. of Data Rows : 1321
ngspice-44 done
