
Note: Compatibility modes selected: hs a


Circuit: ** sch_path: /home/samantha/cace/sar-adc-using-sky130-pdk/runs/run_2025-09-05_22-56-39/parameters/inl/run_3/sar_output.sch

option SCALE: Scale is set to 1e-06 for instance and model parameters
option SCALE: Scale is set to 1e-06 for instance and model parameters
option SCALE: Scale is set to 1e-06 for instance and model parameters
option SCALE: Scale is set to 1e-06 for instance and model parameters
Doing analysis at TEMP = 27.000000 and TNOM = 27.000000

Using KLU as Direct Linear Solver
Operating point simulation skipped by 'uic',
  now using transient initial conditions.
 Reference value :  1.00000e-12
 Reference value :  1.02386e-12
 Reference value :  1.07158e-12
 Reference value :  1.14191e-12
 Reference value :  1.21991e-12
 Reference value :  1.35799e-12
 Reference value :  1.57249e-12
 Reference value :  1.90214e-12
 Reference value :  2.53061e-12
 Reference value :  3.45810e-12
 Reference value :  4.88208e-12
 Reference value :  6.40382e-12
 Reference value :  8.74794e-12
 Reference value :  1.27862e-11
 Reference value :  1.82878e-11
 Reference value :  2.51887e-11
 Reference value :  3.42489e-11
 Reference value :  4.43128e-11
 Reference value :  6.01937e-11
 Reference value :  7.81445e-11
 Reference value :  1.00000e-10
 Reference value :  1.00420e-10
 Reference value :  1.01260e-10
 Reference value :  1.02941e-10
 Reference value :  1.06266e-10
 Reference value :  1.12917e-10
 Reference value :  1.26219e-10
 Reference value :  1.52822e-10
 Reference value :  1.90212e-10
 Reference value :  2.37777e-10
 Reference value :  3.05791e-10
 Reference value :  4.28128e-10
 Reference value :  6.59679e-10
 Reference value :  9.44631e-10
 Reference value :  1.37749e-09
 Reference value :  1.86820e-09
 Reference value :  2.63486e-09
 Reference value :  3.49631e-09
 Reference value :  4.43554e-09
 Reference value :  5.37707e-09
 Reference value :  6.26703e-09
 Reference value :  7.15819e-09
 Reference value :  8.04153e-09
 Reference value :  9.09589e-09
 Reference value :  1.02002e-08
 Reference value :  1.10752e-08
 Reference value :  1.19188e-08
 Reference value :  1.28770e-08
 Reference value :  1.37967e-08
 Reference value :  1.48503e-08
 Reference value :  1.60202e-08
 Reference value :  1.71760e-08
 Reference value :  1.83695e-08
 Reference value :  1.98285e-08
 Reference value :  2.11637e-08
 Reference value :  2.27719e-08
 Reference value :  2.40336e-08
 Reference value :  2.56386e-08
 Reference value :  2.76478e-08
 Reference value :  3.00931e-08
 Reference value :  3.33706e-08
 Reference value :  3.66380e-08
 Reference value :  4.31729e-08
 Reference value :  5.57140e-08
 Reference value :  7.66967e-08
 Reference value :  1.07988e-07
 Reference value :  1.53183e-07
 Reference value :  2.15423e-07
 Reference value :  2.50100e-07
 Reference value :  2.50110e-07
 Reference value :  2.50130e-07
 Reference value :  2.50170e-07
 Reference value :  2.50200e-07
 Reference value :  2.50201e-07
 Reference value :  2.50202e-07
 Reference value :  2.50204e-07
 Reference value :  2.50208e-07
 Reference value :  2.50216e-07
 Reference value :  2.50232e-07
 Reference value :  2.50265e-07
 Reference value :  2.50331e-07
 Reference value :  2.50412e-07
 Reference value :  2.50575e-07
 Reference value :  2.50741e-07
 Reference value :  2.51073e-07
 Reference value :  2.51459e-07
 Reference value :  2.52119e-07
 Reference value :  2.52784e-07
 Reference value :  2.53506e-07
 Reference value :  2.54463e-07
 Reference value :  2.55477e-07
 Reference value :  2.56513e-07
 Reference value :  2.57710e-07
 Reference value :  2.58913e-07
 Reference value :  2.60088e-07
 Reference value :  2.61421e-07
 Reference value :  2.63123e-07
 Reference value :  2.65860e-07
 Reference value :  2.69959e-07
 Reference value :  2.75030e-07
 Reference value :  2.81527e-07
 Reference value :  2.85388e-07
 Reference value :  2.90511e-07
 Reference value :  2.95699e-07
 Reference value :  3.02821e-07
 Reference value :  3.09838e-07
 Reference value :  3.16678e-07
 Reference value :  3.24292e-07
 Reference value :  3.39521e-07
 Reference value :  3.58869e-07
 Reference value :  3.91324e-07
 Reference value :  4.54395e-07
 Reference value :  5.00000e-07
 Reference value :  5.00010e-07
 Reference value :  5.00030e-07
 Reference value :  5.00070e-07
 Reference value :  5.00100e-07
 Reference value :  5.00101e-07
 Reference value :  5.00102e-07
 Reference value :  5.00104e-07
 Reference value :  5.00108e-07
 Reference value :  5.00116e-07
 Reference value :  5.00133e-07
 Reference value :  5.00166e-07
 Reference value :  5.00232e-07
 Reference value :  5.00364e-07
 Reference value :  5.00562e-07
 Reference value :  5.00958e-07
 Reference value :  5.01468e-07
 Reference value :  5.02005e-07
 Reference value :  5.02765e-07
 Reference value :  5.03572e-07
 Reference value :  5.04320e-07
 Reference value :  5.05132e-07
 Reference value :  5.06131e-07
 Reference value :  5.07173e-07
 Reference value :  5.08396e-07
 Reference value :  5.09758e-07
 Reference value :  5.11607e-07
 Reference value :  5.13517e-07
 Reference value :  5.15471e-07
 Reference value :  5.17398e-07
 Reference value :  5.19733e-07
 Reference value :  5.23843e-07
 Reference value :  5.26891e-07
 Reference value :  5.30514e-07
 Reference value :  5.34262e-07
 Reference value :  5.38204e-07
 Reference value :  5.44428e-07
 Reference value :  5.50208e-07
 Reference value :  5.60060e-07
 Reference value :  5.73036e-07
 Reference value :  5.98989e-07
 Reference value :  6.48934e-07
 Reference value :  7.33803e-07
 Reference value :  7.50100e-07
 Reference value :  7.50110e-07
 Reference value :  7.50130e-07
 Reference value :  7.50170e-07
 Reference value :  7.50200e-07
 Reference value :  7.50201e-07
 Reference value :  7.50202e-07
 Reference value :  7.50204e-07
 Reference value :  7.50208e-07
 Reference value :  7.50216e-07
 Reference value :  7.50233e-07
 Reference value :  7.50266e-07
 Reference value :  7.50333e-07
 Reference value :  7.50467e-07
 Reference value :  7.50644e-07
 Reference value :  7.50914e-07
 Reference value :  7.51453e-07
 Reference value :  7.52099e-07
 Reference value :  7.52800e-07
 Reference value :  7.53529e-07
 Reference value :  7.54426e-07
 Reference value :  7.55524e-07
 Reference value :  7.56676e-07
 Reference value :  7.57707e-07
 Reference value :  7.58805e-07
 Reference value :  7.59800e-07
 Reference value :  7.60850e-07
 Reference value :  7.62083e-07
 Reference value :  7.63382e-07
 Reference value :  7.64952e-07
 Reference value :  7.66878e-07
 Reference value :  7.69511e-07
 Reference value :  7.72590e-07
 Reference value :  7.77483e-07
 Reference value :  7.87270e-07
 Reference value :  8.04435e-07
 Reference value :  8.36322e-07
 Reference value :  8.96001e-07
 Reference value :  1.00000e-06
 Reference value :  1.00001e-06
 Reference value :  1.00003e-06
 Reference value :  1.00007e-06
 Reference value :  1.00010e-06
 Reference value :  1.00010e-06
 Reference value :  1.00010e-06
 Reference value :  1.00010e-06
 Reference value :  1.00011e-06
 Reference value :  1.00012e-06
 Reference value :  1.00013e-06
 Reference value :  1.00017e-06
 Reference value :  1.00023e-06
 Reference value :  1.00036e-06
 Reference value :  1.00056e-06
 Reference value :  1.00096e-06
 Reference value :  1.00147e-06
 Reference value :  1.00201e-06
 Reference value :  1.00276e-06
 Reference value :  1.00346e-06
 Reference value :  1.00420e-06
 Reference value :  1.00499e-06
 Reference value :  1.00587e-06
 Reference value :  1.00691e-06
 Reference value :  1.00768e-06
 Reference value :  1.00855e-06
 Reference value :  1.00939e-06
 Reference value :  1.01026e-06
 Reference value :  1.01143e-06
 Reference value :  1.01268e-06
 Reference value :  1.01518e-06
 Reference value :  1.01755e-06
 Reference value :  1.01942e-06
 Reference value :  1.02149e-06
 Reference value :  1.02435e-06
 Reference value :  1.02664e-06
 Reference value :  1.02866e-06
 Reference value :  1.03014e-06
 Reference value :  1.03156e-06
 Reference value :  1.03321e-06
 Reference value :  1.03486e-06
 Reference value :  1.03681e-06
 Reference value :  1.03985e-06
 Reference value :  1.04303e-06
 Reference value :  1.04941e-06
 Reference value :  1.05922e-06
 Reference value :  1.07621e-06
 Reference value :  1.10692e-06
 Reference value :  1.15786e-06
 Reference value :  1.23279e-06
 Reference value :  1.25010e-06
 Reference value :  1.25011e-06
 Reference value :  1.25013e-06
 Reference value :  1.25017e-06
 Reference value :  1.25020e-06
 Reference value :  1.25020e-06
 Reference value :  1.25020e-06
 Reference value :  1.25020e-06
 Reference value :  1.25021e-06
 Reference value :  1.25022e-06
 Reference value :  1.25023e-06
 Reference value :  1.25027e-06
 Reference value :  1.25033e-06
 Reference value :  1.25047e-06
 Reference value :  1.25064e-06
 Reference value :  1.25091e-06
 Reference value :  1.25145e-06
 Reference value :  1.25210e-06
 Reference value :  1.25288e-06
 Reference value :  1.25358e-06
 Reference value :  1.25455e-06
 Reference value :  1.25561e-06
 Reference value :  1.25652e-06
 Reference value :  1.25760e-06
 Reference value :  1.25872e-06
 Reference value :  1.25987e-06
 Reference value :  1.26137e-06
 Reference value :  1.26390e-06
 Reference value :  1.26735e-06
 Reference value :  1.27248e-06
 Reference value :  1.28273e-06
 Reference value :  1.29891e-06
 Reference value :  1.31606e-06
 Reference value :  1.33734e-06
 Reference value :  1.35917e-06
 Reference value :  1.37450e-06
 Reference value :  1.38887e-06
 Reference value :  1.40869e-06
 Reference value :  1.42886e-06
 Reference value :  1.45684e-06
 Reference value :  1.48517e-06
 Reference value :  1.50000e-06
 Reference value :  1.50001e-06
 Reference value :  1.50003e-06
 Reference value :  1.50007e-06
 Reference value :  1.50010e-06
 Reference value :  1.50010e-06
 Reference value :  1.50010e-06
 Reference value :  1.50010e-06
 Reference value :  1.50011e-06
 Reference value :  1.50012e-06
 Reference value :  1.50013e-06
 Reference value :  1.50017e-06
 Reference value :  1.50023e-06
 Reference value :  1.50036e-06
 Reference value :  1.50056e-06
 Reference value :  1.50095e-06
 Reference value :  1.50146e-06
 Reference value :  1.50200e-06
 Reference value :  1.50275e-06
 Reference value :  1.50344e-06
 Reference value :  1.50417e-06
 Reference value :  1.50501e-06
 Reference value :  1.50593e-06
 Reference value :  1.50689e-06
 Reference value :  1.50789e-06
 Reference value :  1.50945e-06
 Reference value :  1.51099e-06
 Reference value :  1.51307e-06
 Reference value :  1.51465e-06
 Reference value :  1.51636e-06
 Reference value :  1.51844e-06
 Reference value :  1.52065e-06
 Reference value :  1.52443e-06
 Reference value :  1.52946e-06
 Reference value :  1.53777e-06
 Reference value :  1.55131e-06
 Reference value :  1.57446e-06
 Reference value :  1.62059e-06
 Reference value :  1.69924e-06
 Reference value :  1.75010e-06
 Reference value :  1.75011e-06
 Reference value :  1.75013e-06
 Reference value :  1.75017e-06
 Reference value :  1.75020e-06
 Reference value :  1.75020e-06
 Reference value :  1.75020e-06
 Reference value :  1.75020e-06
 Reference value :  1.75021e-06
 Reference value :  1.75022e-06
 Reference value :  1.75023e-06
 Reference value :  1.75027e-06
 Reference value :  1.75033e-06
 Reference value :  1.75047e-06
 Reference value :  1.75064e-06
 Reference value :  1.75091e-06
 Reference value :  1.75145e-06
 Reference value :  1.75210e-06
 Reference value :  1.75288e-06
 Reference value :  1.75358e-06
 Reference value :  1.75454e-06
 Reference value :  1.75561e-06
 Reference value :  1.75653e-06
 Reference value :  1.75762e-06
 Reference value :  1.75852e-06
 Reference value :  1.75950e-06
 Reference value :  1.76068e-06
 Reference value :  1.76200e-06
 Reference value :  1.76466e-06
 Reference value :  1.76853e-06
 Reference value :  1.77524e-06
 Reference value :  1.78839e-06
 Reference value :  1.81002e-06
 Reference value :  1.85327e-06
 Reference value :  1.93978e-06
 Reference value :  2.00000e-06
 Reference value :  2.00001e-06
 Reference value :  2.00003e-06
 Reference value :  2.00007e-06
 Reference value :  2.00010e-06
 Reference value :  2.00010e-06
 Reference value :  2.00010e-06
 Reference value :  2.00010e-06
 Reference value :  2.00011e-06
 Reference value :  2.00012e-06
 Reference value :  2.00013e-06
 Reference value :  2.00017e-06
 Reference value :  2.00023e-06
 Reference value :  2.00036e-06
 Reference value :  2.00056e-06
 Reference value :  2.00095e-06
 Reference value :  2.00146e-06
 Reference value :  2.00200e-06
 Reference value :  2.00275e-06
 Reference value :  2.00345e-06
 Reference value :  2.00418e-06
 Reference value :  2.00498e-06
 Reference value :  2.00586e-06
 Reference value :  2.00661e-06
 Reference value :  2.00746e-06
 Reference value :  2.00819e-06
 Reference value :  2.00904e-06
 Reference value :  2.01012e-06
 Reference value :  2.01126e-06
 Reference value :  2.01328e-06
 Reference value :  2.01572e-06
 Reference value :  2.01879e-06
 Reference value :  2.02225e-06
 Reference value :  2.02507e-06
 Reference value :  2.02734e-06
 Reference value :  2.02947e-06
 Reference value :  2.03160e-06
 Reference value :  2.03378e-06
 Reference value :  2.03633e-06
 Reference value :  2.03955e-06
 Reference value :  2.04500e-06
 Reference value :  2.05126e-06
 Reference value :  2.05769e-06
 Reference value :  2.06213e-06
 Reference value :  2.06696e-06
 Reference value :  2.07027e-06
 Reference value :  2.07452e-06
 Reference value :  2.07854e-06
 Reference value :  2.08274e-06
 Reference value :  2.08728e-06
 Reference value :  2.09435e-06
 Reference value :  2.10106e-06
 Reference value :  2.10746e-06
 Reference value :  2.11538e-06
 Reference value :  2.12838e-06
 Reference value :  2.15039e-06
 Reference value :  2.19439e-06
 Reference value :  2.25010e-06
 Reference value :  2.25011e-06
 Reference value :  2.25013e-06
 Reference value :  2.25017e-06
 Reference value :  2.25020e-06
 Reference value :  2.25020e-06
 Reference value :  2.25020e-06
 Reference value :  2.25020e-06
 Reference value :  2.25021e-06
 Reference value :  2.25022e-06
 Reference value :  2.25023e-06
 Reference value :  2.25027e-06
 Reference value :  2.25033e-06
 Reference value :  2.25047e-06
 Reference value :  2.25064e-06
 Reference value :  2.25091e-06
 Reference value :  2.25145e-06
 Reference value :  2.25210e-06
 Reference value :  2.25288e-06
 Reference value :  2.25358e-06
 Reference value :  2.25454e-06
 Reference value :  2.25544e-06
 Reference value :  2.25644e-06
 Reference value :  2.25746e-06
 Reference value :  2.25848e-06
 Reference value :  2.26021e-06
 Reference value :  2.26190e-06
 Reference value :  2.26458e-06
 Reference value :  2.26816e-06
 Reference value :  2.27430e-06
 Reference value :  2.28471e-06
 Reference value :  2.30099e-06
 Reference value :  2.33268e-06
 Reference value :  2.39267e-06
 Reference value :  2.48691e-06
 Reference value :  2.50000e-06
 Reference value :  2.50001e-06
 Reference value :  2.50003e-06
 Reference value :  2.50007e-06
 Reference value :  2.50010e-06
 Reference value :  2.50010e-06
 Reference value :  2.50010e-06
 Reference value :  2.50010e-06
 Reference value :  2.50011e-06
 Reference value :  2.50012e-06
 Reference value :  2.50013e-06
 Reference value :  2.50017e-06
 Reference value :  2.50023e-06
 Reference value :  2.50036e-06
 Reference value :  2.50055e-06
 Reference value :  2.50091e-06
 Reference value :  2.50141e-06
 Reference value :  2.50194e-06
 Reference value :  2.50259e-06
 Reference value :  2.50328e-06
 Reference value :  2.50395e-06
 Reference value :  2.50471e-06
 Reference value :  2.50557e-06
 Reference value :  2.50642e-06
 Reference value :  2.50764e-06
 Reference value :  2.50888e-06
 Reference value :  2.51090e-06
 Reference value :  2.51240e-06
 Reference value :  2.51392e-06
 Reference value :  2.51551e-06
 Reference value :  2.51724e-06
 Reference value :  2.51903e-06
 Reference value :  2.52260e-06
 Reference value :  2.52729e-06
 Reference value :  2.53612e-06
 Reference value :  2.55161e-06
 Reference value :  2.57991e-06
 Reference value :  2.63652e-06
 Reference value :  2.74974e-06
 Reference value :  2.75010e-06
 Reference value :  2.75011e-06
 Reference value :  2.75012e-06
 Reference value :  2.75014e-06
 Reference value :  2.75018e-06
 Reference value :  2.75020e-06
 Reference value :  2.75020e-06
 Reference value :  2.75020e-06
 Reference value :  2.75020e-06
 Reference value :  2.75021e-06
 Reference value :  2.75021e-06
 Reference value :  2.75023e-06
 Reference value :  2.75025e-06
 Reference value :  2.75031e-06
 Reference value :  2.75042e-06
 Reference value :  2.75060e-06
 Reference value :  2.75082e-06
 Reference value :  2.75127e-06
 Reference value :  2.75188e-06
 Reference value :  2.75258e-06
 Reference value :  2.75326e-06
 Reference value :  2.75415e-06
 Reference value :  2.75525e-06
 Reference value :  2.75605e-06
 Reference value :  2.75693e-06
 Reference value :  2.75800e-06
 Reference value :  2.75911e-06
 Reference value :  2.76029e-06
 Reference value :  2.76164e-06
 Reference value :  2.76311e-06
 Reference value :  2.76514e-06
 Reference value :  2.76779e-06
 Reference value :  2.77087e-06
 Reference value :  2.77585e-06
 Reference value :  2.78581e-06
 Reference value :  2.80142e-06
 Reference value :  2.83095e-06
 Reference value :  2.88214e-06
 Reference value :  2.98395e-06
 Reference value :  3.00000e-06
 Reference value :  3.00001e-06
 Reference value :  3.00003e-06
 Reference value :  3.00007e-06
 Reference value :  3.00010e-06
 Reference value :  3.00010e-06
 Reference value :  3.00010e-06
 Reference value :  3.00010e-06
 Reference value :  3.00011e-06
 Reference value :  3.00012e-06
 Reference value :  3.00013e-06
 Reference value :  3.00017e-06
 Reference value :  3.00023e-06
 Reference value :  3.00036e-06
 Reference value :  3.00055e-06
 Reference value :  3.00091e-06
 Reference value :  3.00141e-06
 Reference value :  3.00194e-06
 Reference value :  3.00268e-06
 Reference value :  3.00337e-06
 Reference value :  3.00409e-06
 Reference value :  3.00486e-06
 Reference value :  3.00572e-06
 Reference value :  3.00653e-06
 Reference value :  3.00736e-06
 Reference value :  3.00811e-06
 Reference value :  3.00895e-06
 Reference value :  3.01009e-06
 Reference value :  3.01116e-06
 Reference value :  3.01303e-06
 Reference value :  3.01516e-06
 Reference value :  3.01681e-06
 Reference value :  3.01863e-06
 Reference value :  3.02048e-06
 Reference value :  3.02250e-06
 Reference value :  3.02398e-06
 Reference value :  3.02540e-06
 Reference value :  3.02673e-06
 Reference value :  3.02818e-06
 Reference value :  3.02985e-06
 Reference value :  3.03173e-06
 Reference value :  3.03447e-06
 Reference value :  3.03794e-06
 Reference value :  3.04488e-06
 Reference value :  3.05581e-06
 Reference value :  3.07226e-06
 Reference value :  3.09595e-06
 Reference value :  3.14334e-06
 Reference value :  3.19818e-06
 Reference value :  3.24283e-06
 Reference value :  3.25010e-06
 Reference value :  3.25011e-06
 Reference value :  3.25013e-06
 Reference value :  3.25017e-06
 Reference value :  3.25020e-06
 Reference value :  3.25020e-06
 Reference value :  3.25020e-06
 Reference value :  3.25020e-06
 Reference value :  3.25021e-06
 Reference value :  3.25022e-06
 Reference value :  3.25023e-06
 Reference value :  3.25027e-06
 Reference value :  3.25033e-06
 Reference value :  3.25047e-06
 Reference value :  3.25064e-06
 Reference value :  3.25091e-06
 Reference value :  3.25145e-06
 Reference value :  3.25210e-06
 Reference value :  3.25287e-06
 Reference value :  3.25358e-06
 Reference value :  3.25455e-06
 Reference value :  3.25561e-06
 Reference value :  3.25651e-06
 Reference value :  3.25748e-06
 Reference value :  3.25847e-06
 Reference value :  3.25988e-06
 Reference value :  3.26135e-06
 Reference value :  3.26399e-06
 Reference value :  3.26732e-06
 Reference value :  3.27265e-06
 Reference value :  3.28331e-06
 Reference value :  3.29947e-06
 Reference value :  3.33178e-06
 Reference value :  3.39641e-06
 Reference value :  3.50000e-06
 Reference value :  3.50001e-06
 Reference value :  3.50003e-06
 Reference value :  3.50007e-06
 Reference value :  3.50010e-06
 Reference value :  3.50010e-06
 Reference value :  3.50010e-06
 Reference value :  3.50010e-06
 Reference value :  3.50011e-06
 Reference value :  3.50012e-06
 Reference value :  3.50013e-06
 Reference value :  3.50017e-06
 Reference value :  3.50023e-06
 Reference value :  3.50036e-06
 Reference value :  3.50055e-06
 Reference value :  3.50091e-06
 Reference value :  3.50141e-06
 Reference value :  3.50194e-06
 Reference value :  3.50269e-06
 Reference value :  3.50338e-06
 Reference value :  3.50410e-06
 Reference value :  3.50490e-06
 Reference value :  3.50579e-06
 Reference value :  3.50677e-06
 Reference value :  3.50802e-06
 Reference value :  3.50965e-06
 Reference value :  3.51114e-06
 Reference value :  3.51288e-06
 Reference value :  3.51451e-06
 Reference value :  3.51639e-06
 Reference value :  3.51817e-06
 Reference value :  3.52051e-06
 Reference value :  3.52389e-06
 Reference value :  3.52905e-06
 Reference value :  3.53803e-06
 Reference value :  3.55381e-06
 Reference value :  3.58236e-06
 Reference value :  3.63545e-06
 Reference value :  3.74164e-06
 Reference value :  3.75010e-06
 Reference value :  3.75011e-06
 Reference value :  3.75013e-06
 Reference value :  3.75017e-06
 Reference value :  3.75020e-06
 Reference value :  3.75020e-06
 Reference value :  3.75020e-06
 Reference value :  3.75020e-06
 Reference value :  3.75021e-06
 Reference value :  3.75022e-06
 Reference value :  3.75023e-06
 Reference value :  3.75027e-06
 Reference value :  3.75033e-06
 Reference value :  3.75047e-06
 Reference value :  3.75064e-06
 Reference value :  3.75091e-06
 Reference value :  3.75145e-06
 Reference value :  3.75210e-06
 Reference value :  3.75288e-06
 Reference value :  3.75358e-06
 Reference value :  3.75455e-06
 Reference value :  3.75561e-06
 Reference value :  3.75651e-06
 Reference value :  3.75749e-06
 Reference value :  3.75842e-06
 Reference value :  3.75945e-06
 Reference value :  3.76061e-06
 Reference value :  3.76200e-06
 Reference value :  3.76346e-06
 Reference value :  3.76593e-06
 Reference value :  3.76848e-06
 Reference value :  3.77209e-06
 Reference value :  3.77723e-06
 Reference value :  3.78750e-06
 Reference value :  3.80804e-06
 Reference value :  3.84912e-06
 Reference value :  3.93129e-06
 Reference value :  4.00000e-06
 Reference value :  4.00001e-06
 Reference value :  4.00003e-06
 Reference value :  4.00007e-06
 Reference value :  4.00010e-06
 Reference value :  4.00010e-06
 Reference value :  4.00010e-06
 Reference value :  4.00010e-06
 Reference value :  4.00011e-06
 Reference value :  4.00012e-06
 Reference value :  4.00013e-06
 Reference value :  4.00017e-06
 Reference value :  4.00023e-06
 Reference value :  4.00036e-06
 Reference value :  4.00055e-06
 Reference value :  4.00091e-06
 Reference value :  4.00141e-06
 Reference value :  4.00194e-06
 Reference value :  4.00269e-06
 Reference value :  4.00337e-06
 Reference value :  4.00409e-06
 Reference value :  4.00487e-06
 Reference value :  4.00575e-06
 Reference value :  4.00648e-06
 Reference value :  4.00727e-06
 Reference value :  4.00802e-06
 Reference value :  4.00888e-06
 Reference value :  4.00970e-06
 Reference value :  4.01095e-06
 Reference value :  4.01209e-06
 Reference value :  4.01417e-06
 Reference value :  4.01638e-06
 Reference value :  4.01810e-06
 Reference value :  4.01997e-06
 Reference value :  4.02245e-06
 Reference value :  4.02450e-06
 Reference value :  4.02607e-06
 Reference value :  4.02753e-06
 Reference value :  4.02910e-06
 Reference value :  4.03070e-06
 Reference value :  4.03252e-06
 Reference value :  4.03571e-06
 Reference value :  4.03863e-06
 Reference value :  4.04446e-06
 Reference value :  4.05368e-06
 Reference value :  4.06787e-06
 Reference value :  4.08948e-06
 Reference value :  4.10830e-06
 Reference value :  4.12829e-06
 Reference value :  4.14078e-06
 Reference value :  4.15284e-06
 Reference value :  4.16861e-06
 Reference value :  4.18222e-06
 Reference value :  4.19593e-06
 Reference value :  4.20771e-06
 Reference value :  4.22090e-06
 Reference value :  4.24116e-06
 Reference value :  4.25010e-06
 Reference value :  4.25011e-06
 Reference value :  4.25013e-06
 Reference value :  4.25017e-06
 Reference value :  4.25020e-06
 Reference value :  4.25020e-06
 Reference value :  4.25020e-06
 Reference value :  4.25020e-06
 Reference value :  4.25021e-06
 Reference value :  4.25022e-06
 Reference value :  4.25023e-06
 Reference value :  4.25027e-06
 Reference value :  4.25033e-06
 Reference value :  4.25042e-06
 Reference value :  4.25058e-06
 Reference value :  4.25077e-06
 Reference value :  4.25109e-06
 Reference value :  4.25172e-06
 Reference value :  4.25234e-06
 Reference value :  4.25304e-06
 Reference value :  4.25378e-06
 Reference value :  4.25472e-06
 Reference value :  4.25553e-06
 Reference value :  4.25646e-06
 Reference value :  4.25737e-06
 Reference value :  4.25833e-06
 Reference value :  4.25986e-06
 Reference value :  4.26142e-06
 Reference value :  4.26404e-06
 Reference value :  4.26740e-06
 Reference value :  4.27267e-06
 Reference value :  4.28322e-06
 Reference value :  4.30431e-06
 Reference value :  4.32765e-06
 Reference value :  4.36011e-06
 Reference value :  4.40744e-06
 Reference value :  4.50000e-06
 Reference value :  4.50001e-06
 Reference value :  4.50003e-06
 Reference value :  4.50007e-06
 Reference value :  4.50010e-06
 Reference value :  4.50010e-06
 Reference value :  4.50010e-06
 Reference value :  4.50010e-06
 Reference value :  4.50011e-06
 Reference value :  4.50012e-06
 Reference value :  4.50013e-06
 Reference value :  4.50017e-06
 Reference value :  4.50023e-06
 Reference value :  4.50036e-06
 Reference value :  4.50062e-06
 Reference value :  4.50109e-06
 Reference value :  4.50174e-06
 Reference value :  4.50246e-06
 Reference value :  4.50308e-06
 Reference value :  4.50385e-06
 Reference value :  4.50481e-06
 Reference value :  4.50576e-06
 Reference value :  4.50670e-06
 Reference value :  4.50785e-06
 Reference value :  4.50928e-06
 Reference value :  4.51101e-06
 Reference value :  4.51234e-06
 Reference value :  4.51378e-06
 Reference value :  4.51521e-06
 Reference value :  4.51688e-06
 Reference value :  4.51865e-06
 Reference value :  4.52189e-06
 Reference value :  4.52660e-06
 Reference value :  4.53546e-06
 Reference value :  4.55228e-06
 Reference value :  4.58168e-06
 Reference value :  4.64049e-06
 Reference value :  4.75010e-06
 Reference value :  4.75011e-06
 Reference value :  4.75013e-06
 Reference value :  4.75017e-06
 Reference value :  4.75020e-06
 Reference value :  4.75020e-06
 Reference value :  4.75020e-06
 Reference value :  4.75020e-06
 Reference value :  4.75021e-06
 Reference value :  4.75022e-06
 Reference value :  4.75023e-06
 Reference value :  4.75027e-06
 Reference value :  4.75033e-06
 Reference value :  4.75042e-06
 Reference value :  4.75058e-06
 Reference value :  4.75077e-06
 Reference value :  4.75108e-06
 Reference value :  4.75171e-06
 Reference value :  4.75233e-06
 Reference value :  4.75303e-06
 Reference value :  4.75377e-06
 Reference value :  4.75471e-06
 Reference value :  4.75553e-06
 Reference value :  4.75647e-06
 Reference value :  4.75728e-06
 Reference value :  4.75818e-06
 Reference value :  4.75921e-06
 Reference value :  4.76036e-06
 Reference value :  4.76178e-06
 Reference value :  4.76326e-06
 Reference value :  4.76563e-06
 Reference value :  4.76814e-06
 Reference value :  4.77193e-06
 Reference value :  4.77713e-06
 Reference value :  4.78753e-06
 Reference value :  4.80832e-06
 Reference value :  4.84992e-06
 Reference value :  4.93310e-06
 Reference value :  5.00000e-06
 Reference value :  5.00001e-06
 Reference value :  5.00003e-06
 Reference value :  5.00007e-06
 Reference value :  5.00010e-06
 Reference value :  5.00010e-06
 Reference value :  5.00010e-06
 Reference value :  5.00010e-06
 Reference value :  5.00011e-06
 Reference value :  5.00012e-06
 Reference value :  5.00013e-06
 Reference value :  5.00017e-06
 Reference value :  5.00023e-06
 Reference value :  5.00036e-06
 Reference value :  5.00062e-06
 Reference value :  5.00109e-06
 Reference value :  5.00174e-06
 Reference value :  5.00246e-06
 Reference value :  5.00309e-06
 Reference value :  5.00386e-06
 Reference value :  5.00471e-06
 Reference value :  5.00560e-06
 Reference value :  5.00637e-06
 Reference value :  5.00718e-06
 Reference value :  5.00789e-06
 Reference value :  5.00869e-06
 Reference value :  5.00966e-06
 Reference value :  5.01075e-06
 Reference value :  5.01294e-06
 Reference value :  5.01511e-06
 Reference value :  5.01737e-06
 Reference value :  5.01946e-06
 Reference value :  5.02159e-06
 Reference value :  5.02392e-06
 Reference value :  5.02612e-06
 Reference value :  5.02781e-06
 Reference value :  5.02940e-06
 Reference value :  5.03094e-06
 Reference value :  5.03255e-06
 Reference value :  5.03441e-06
 Reference value :  5.03722e-06
 Reference value :  5.04018e-06
 Reference value :  5.04335e-06
 Reference value :  5.04717e-06
 Reference value :  5.05020e-06
 Reference value :  5.05321e-06
 Reference value :  5.05610e-06
 Reference value :  5.05996e-06
 Reference value :  5.06543e-06
 Reference value :  5.07323e-06
 Reference value :  5.08705e-06
 Reference value :  5.10905e-06
 Reference value :  5.13954e-06
 Reference value :  5.19532e-06
 Reference value :  5.24719e-06
 Reference value :  5.25010e-06
 Reference value :  5.25011e-06
 Reference value :  5.25013e-06
 Reference value :  5.25017e-06
 Reference value :  5.25020e-06
 Reference value :  5.25020e-06
 Reference value :  5.25020e-06
 Reference value :  5.25020e-06
 Reference value :  5.25021e-06
 Reference value :  5.25022e-06
 Reference value :  5.25023e-06
 Reference value :  5.25027e-06
 Reference value :  5.25033e-06
 Reference value :  5.25042e-06
 Reference value :  5.25058e-06
 Reference value :  5.25076e-06
 Reference value :  5.25108e-06
 Reference value :  5.25172e-06
 Reference value :  5.25234e-06
 Reference value :  5.25305e-06
 Reference value :  5.25378e-06
 Reference value :  5.25473e-06
 Reference value :  5.25576e-06
 Reference value :  5.25652e-06
 Reference value :  5.25740e-06
 Reference value :  5.25838e-06
 Reference value :  5.25951e-06
 Reference value :  5.26072e-06
 Reference value :  5.26314e-06
 Reference value :  5.26626e-06
 Reference value :  5.27079e-06
 Reference value :  5.27950e-06
 Reference value :  5.29692e-06
 Reference value :  5.33177e-06
 Reference value :  5.40145e-06
 Reference value :  5.50000e-06
 Reference value :  5.50001e-06
 Reference value :  5.50003e-06
 Reference value :  5.50007e-06
 Reference value :  5.50010e-06
 Reference value :  5.50010e-06
 Reference value :  5.50010e-06
 Reference value :  5.50010e-06
 Reference value :  5.50011e-06
 Reference value :  5.50012e-06
 Reference value :  5.50013e-06
 Reference value :  5.50017e-06
 Reference value :  5.50023e-06
 Reference value :  5.50036e-06
 Reference value :  5.50062e-06
 Reference value :  5.50109e-06
 Reference value :  5.50174e-06
 Reference value :  5.50246e-06
 Reference value :  5.50308e-06
 Reference value :  5.50385e-06
 Reference value :  5.50481e-06
 Reference value :  5.50576e-06
 Reference value :  5.50670e-06
 Reference value :  5.50780e-06
 Reference value :  5.50917e-06
 Reference value :  5.51076e-06
 Reference value :  5.51223e-06
 Reference value :  5.51357e-06
 Reference value :  5.51505e-06
 Reference value :  5.51670e-06
 Reference value :  5.51841e-06
 Reference value :  5.52182e-06
 Reference value :  5.52673e-06
 Reference value :  5.53654e-06
 Reference value :  5.55453e-06
 Reference value :  5.58738e-06
 Reference value :  5.65227e-06
 Reference value :  5.75010e-06
 Reference value :  5.75011e-06
 Reference value :  5.75013e-06
 Reference value :  5.75017e-06
 Reference value :  5.75020e-06
 Reference value :  5.75020e-06
 Reference value :  5.75020e-06
 Reference value :  5.75020e-06
 Reference value :  5.75021e-06
 Reference value :  5.75022e-06
 Reference value :  5.75023e-06
 Reference value :  5.75027e-06
 Reference value :  5.75033e-06
 Reference value :  5.75041e-06
 Reference value :  5.75058e-06
 Reference value :  5.75077e-06
 Reference value :  5.75108e-06
 Reference value :  5.75170e-06
 Reference value :  5.75233e-06
 Reference value :  5.75303e-06
 Reference value :  5.75376e-06
 Reference value :  5.75470e-06
 Reference value :  5.75573e-06
 Reference value :  5.75649e-06
 Reference value :  5.75737e-06
 Reference value :  5.75836e-06
 Reference value :  5.75928e-06
 Reference value :  5.76083e-06
 Reference value :  5.76226e-06
 Reference value :  5.76513e-06
 Reference value :  5.76896e-06
 Reference value :  5.77661e-06
 Reference value :  5.79192e-06
 Reference value :  5.82254e-06
 Reference value :  5.88377e-06
 Reference value :  6.00000e-06
 Reference value :  6.00001e-06
 Reference value :  6.00003e-06
 Reference value :  6.00007e-06
 Reference value :  6.00010e-06
 Reference value :  6.00010e-06
 Reference value :  6.00010e-06
 Reference value :  6.00010e-06
 Reference value :  6.00011e-06
 Reference value :  6.00012e-06
 Reference value :  6.00013e-06
 Reference value :  6.00017e-06
 Reference value :  6.00023e-06
 Reference value :  6.00036e-06
 Reference value :  6.00062e-06
 Reference value :  6.00109e-06
 Reference value :  6.00174e-06
 Reference value :  6.00246e-06
 Reference value :  6.00309e-06
 Reference value :  6.00385e-06
 Reference value :  6.00482e-06
 Reference value :  6.00571e-06
 Reference value :  6.00666e-06
 Reference value :  6.00758e-06
 Reference value :  6.00857e-06
 Reference value :  6.00958e-06
 Reference value :  6.01081e-06
 Reference value :  6.01258e-06
 Reference value :  6.01489e-06
 Reference value :  6.01893e-06
 Reference value :  6.02379e-06
 Reference value :  6.02715e-06
 Reference value :  6.02999e-06
 Reference value :  6.03269e-06
 Reference value :  6.03545e-06
 Reference value :  6.03831e-06
 Reference value :  6.04155e-06
 Reference value :  6.04493e-06
 Reference value :  6.05070e-06
 Reference value :  6.05706e-06
 Reference value :  6.06695e-06
 Reference value :  6.08082e-06
 Reference value :  6.10052e-06
 Reference value :  6.12021e-06
 Reference value :  6.13424e-06
 Reference value :  6.14750e-06
 Reference value :  6.16821e-06
 Reference value :  6.19275e-06
 Reference value :  6.21292e-06
 Reference value :  6.23671e-06
 Reference value :  6.25010e-06
 Reference value :  6.25011e-06
 Reference value :  6.25013e-06
 Reference value :  6.25017e-06
 Reference value :  6.25020e-06
 Reference value :  6.25020e-06
 Reference value :  6.25020e-06
 Reference value :  6.25020e-06
 Reference value :  6.25021e-06
 Reference value :  6.25022e-06
 Reference value :  6.25023e-06
 Reference value :  6.25027e-06
 Reference value :  6.25033e-06
 Reference value :  6.25041e-06
 Reference value :  6.25058e-06
 Reference value :  6.25076e-06
 Reference value :  6.25106e-06
 Reference value :  6.25165e-06
 Reference value :  6.25228e-06
 Reference value :  6.25298e-06
 Reference value :  6.25371e-06
 Reference value :  6.25463e-06
 Reference value :  6.25565e-06
 Reference value :  6.25691e-06
 Reference value :  6.25800e-06
 Reference value :  6.25912e-06
 Reference value :  6.26036e-06
 Reference value :  6.26213e-06
 Reference value :  6.26426e-06
 Reference value :  6.26806e-06
 Reference value :  6.27412e-06
 Reference value :  6.28476e-06
 Reference value :  6.30472e-06
 Reference value :  6.34465e-06
 Reference value :  6.42449e-06
 Reference value :  6.50000e-06
 Reference value :  6.50001e-06
 Reference value :  6.50003e-06
 Reference value :  6.50007e-06
 Reference value :  6.50010e-06
 Reference value :  6.50010e-06
 Reference value :  6.50010e-06
 Reference value :  6.50010e-06
 Reference value :  6.50011e-06
 Reference value :  6.50012e-06
 Reference value :  6.50013e-06
 Reference value :  6.50017e-06
 Reference value :  6.50023e-06
 Reference value :  6.50036e-06
 Reference value :  6.50062e-06
 Reference value :  6.50109e-06
 Reference value :  6.50174e-06
 Reference value :  6.50246e-06
 Reference value :  6.50308e-06
 Reference value :  6.50385e-06
 Reference value :  6.50480e-06
 Reference value :  6.50576e-06
 Reference value :  6.50669e-06
 Reference value :  6.50782e-06
 Reference value :  6.50898e-06
 Reference value :  6.51101e-06
 Reference value :  6.51288e-06
 Reference value :  6.51450e-06
 Reference value :  6.51623e-06
 Reference value :  6.51862e-06
 Reference value :  6.52091e-06
 Reference value :  6.52511e-06
 Reference value :  6.53081e-06
 Reference value :  6.54033e-06
 Reference value :  6.55603e-06
 Reference value :  6.58384e-06
 Reference value :  6.63207e-06
 Reference value :  6.72068e-06
 Reference value :  6.75010e-06
 Reference value :  6.75011e-06
 Reference value :  6.75013e-06
 Reference value :  6.75017e-06
 Reference value :  6.75020e-06
 Reference value :  6.75020e-06
 Reference value :  6.75020e-06
 Reference value :  6.75020e-06
 Reference value :  6.75021e-06
 Reference value :  6.75022e-06
 Reference value :  6.75023e-06
 Reference value :  6.75027e-06
 Reference value :  6.75033e-06
 Reference value :  6.75041e-06
 Reference value :  6.75058e-06
 Reference value :  6.75080e-06
 Reference value :  6.75107e-06
 Reference value :  6.75163e-06
 Reference value :  6.75225e-06
 Reference value :  6.75292e-06
 Reference value :  6.75365e-06
 Reference value :  6.75457e-06
 Reference value :  6.75558e-06
 Reference value :  6.75681e-06
 Reference value :  6.75778e-06
 Reference value :  6.75883e-06
 Reference value :  6.75987e-06
 Reference value :  6.76097e-06
 Reference value :  6.76218e-06
 Reference value :  6.76355e-06
 Reference value :  6.76503e-06
 Reference value :  6.76752e-06
 Reference value :  6.77019e-06
 Reference value :  6.77437e-06
 Reference value :  6.78089e-06
 Reference value :  6.79393e-06
 Reference value :  6.81482e-06
 Reference value :  6.85659e-06
 Reference value :  6.94012e-06
 Reference value :  7.00000e-06
 Reference value :  7.00001e-06
 Reference value :  7.00003e-06
 Reference value :  7.00007e-06
 Reference value :  7.00010e-06
 Reference value :  7.00010e-06
 Reference value :  7.00010e-06
 Reference value :  7.00010e-06
 Reference value :  7.00011e-06
 Reference value :  7.00012e-06
 Reference value :  7.00013e-06
 Reference value :  7.00017e-06
 Reference value :  7.00023e-06
 Reference value :  7.00036e-06
 Reference value :  7.00062e-06
 Reference value :  7.00109e-06
 Reference value :  7.00174e-06
 Reference value :  7.00246e-06
 Reference value :  7.00308e-06
 Reference value :  7.00385e-06
 Reference value :  7.00481e-06
 Reference value :  7.00571e-06
 Reference value :  7.00665e-06
 Reference value :  7.00738e-06
 Reference value :  7.00823e-06
 Reference value :  7.00909e-06
 Reference value :  7.00995e-06
 Reference value :  7.01104e-06
 Reference value :  7.01222e-06
 Reference value :  7.01456e-06
 Reference value :  7.01757e-06
 Reference value :  7.01960e-06
 Reference value :  7.02191e-06
 Reference value :  7.02389e-06
 Reference value :  7.02614e-06
 Reference value :  7.02798e-06
 Reference value :  7.02992e-06
 Reference value :  7.03165e-06
 Reference value :  7.03347e-06
 Reference value :  7.03575e-06
 Reference value :  7.03805e-06
 Reference value :  7.04140e-06
 Reference value :  7.04587e-06
 Reference value :  7.04907e-06
 Reference value :  7.05280e-06
 Reference value :  7.05708e-06
 Reference value :  7.06188e-06
 Reference value :  7.07025e-06
 Reference value :  7.07846e-06
 Reference value :  7.08761e-06
 Reference value :  7.10026e-06
 Reference value :  7.12556e-06
 Reference value :  7.16550e-06
 Reference value :  7.24537e-06
 Reference value :  7.25010e-06
 Reference value :  7.25011e-06
 Reference value :  7.25013e-06
 Reference value :  7.25017e-06
 Reference value :  7.25020e-06
 Reference value :  7.25020e-06
 Reference value :  7.25020e-06
 Reference value :  7.25020e-06
 Reference value :  7.25021e-06
 Reference value :  7.25022e-06
 Reference value :  7.25023e-06
 Reference value :  7.25027e-06
 Reference value :  7.25033e-06
 Reference value :  7.25042e-06
 Reference value :  7.25059e-06
 Reference value :  7.25077e-06
 Reference value :  7.25107e-06
 Reference value :  7.25167e-06
 Reference value :  7.25229e-06
 Reference value :  7.25299e-06
 Reference value :  7.25372e-06
 Reference value :  7.25465e-06
 Reference value :  7.25566e-06
 Reference value :  7.25662e-06
 Reference value :  7.25772e-06
 Reference value :  7.25883e-06
 Reference value :  7.25994e-06
 Reference value :  7.26169e-06
 Reference value :  7.26365e-06
 Reference value :  7.26728e-06
 Reference value :  7.27233e-06
 Reference value :  7.28244e-06
 Reference value :  7.30091e-06
 Reference value :  7.33607e-06
 Reference value :  7.40638e-06
 Reference value :  7.50000e-06
 Reference value :  7.50001e-06
 Reference value :  7.50003e-06
 Reference value :  7.50007e-06
 Reference value :  7.50010e-06
 Reference value :  7.50010e-06
 Reference value :  7.50010e-06
 Reference value :  7.50010e-06
 Reference value :  7.50011e-06
 Reference value :  7.50012e-06
 Reference value :  7.50013e-06
 Reference value :  7.50017e-06
 Reference value :  7.50023e-06
 Reference value :  7.50036e-06
 Reference value :  7.50062e-06
 Reference value :  7.50109e-06
 Reference value :  7.50171e-06
 Reference value :  7.50245e-06
 Reference value :  7.50308e-06
 Reference value :  7.50385e-06
 Reference value :  7.50479e-06
 Reference value :  7.50576e-06
 Reference value :  7.50668e-06
 Reference value :  7.50785e-06
 Reference value :  7.50906e-06
 Reference value :  7.51092e-06
 Reference value :  7.51293e-06
 Reference value :  7.51464e-06
 Reference value :  7.51645e-06
 Reference value :  7.51877e-06
 Reference value :  7.52118e-06
 Reference value :  7.52528e-06
 Reference value :  7.53094e-06
 Reference value :  7.54035e-06
 Reference value :  7.55651e-06
 Reference value :  7.58247e-06
 Reference value :  7.63048e-06
 Reference value :  7.71689e-06
 Reference value :  7.75010e-06
 Reference value :  7.75011e-06
 Reference value :  7.75013e-06
 Reference value :  7.75017e-06
 Reference value :  7.75020e-06
 Reference value :  7.75020e-06
 Reference value :  7.75020e-06
 Reference value :  7.75020e-06
 Reference value :  7.75021e-06
 Reference value :  7.75022e-06
 Reference value :  7.75023e-06
 Reference value :  7.75027e-06
 Reference value :  7.75033e-06
 Reference value :  7.75042e-06
 Reference value :  7.75059e-06
 Reference value :  7.75082e-06
 Reference value :  7.75109e-06
 Reference value :  7.75165e-06
 Reference value :  7.75226e-06
 Reference value :  7.75292e-06
 Reference value :  7.75365e-06
 Reference value :  7.75457e-06
 Reference value :  7.75558e-06
 Reference value :  7.75658e-06
 Reference value :  7.75763e-06
 Reference value :  7.75858e-06
 Reference value :  7.75957e-06
 Reference value :  7.76064e-06
 Reference value :  7.76189e-06
 Reference value :  7.76437e-06
 Reference value :  7.76855e-06
 Reference value :  7.77499e-06
 Reference value :  7.78788e-06
 Reference value :  7.81365e-06
 Reference value :  7.86520e-06
 Reference value :  7.96830e-06
 Reference value :  8.00000e-06
 Reference value :  8.00001e-06
 Reference value :  8.00003e-06
 Reference value :  8.00007e-06
 Reference value :  8.00010e-06
 Reference value :  8.00010e-06
 Reference value :  8.00010e-06
 Reference value :  8.00010e-06
 Reference value :  8.00011e-06
 Reference value :  8.00012e-06
 Reference value :  8.00013e-06
 Reference value :  8.00017e-06
 Reference value :  8.00023e-06
 Reference value :  8.00036e-06
 Reference value :  8.00062e-06
 Reference value :  8.00109e-06
 Reference value :  8.00171e-06
 Reference value :  8.00245e-06
 Reference value :  8.00308e-06
 Reference value :  8.00385e-06
 Reference value :  8.00482e-06
 Reference value :  8.00575e-06
 Reference value :  8.00670e-06
 Reference value :  8.00756e-06
 Reference value :  8.00851e-06
 Reference value :  8.00954e-06
 Reference value :  8.01070e-06
 Reference value :  8.01243e-06
 Reference value :  8.01396e-06
 Reference value :  8.01557e-06
 Reference value :  8.01723e-06
 Reference value :  8.01905e-06
 Reference value :  8.02267e-06
 Reference value :  8.02810e-06
 Reference value :  8.03698e-06
 Reference value :  8.05472e-06
 Reference value :  8.09021e-06
 Reference value :  8.16118e-06
 Reference value :  8.25010e-06
 Reference value :  8.25011e-06
 Reference value :  8.25013e-06
 Reference value :  8.25017e-06
 Reference value :  8.25020e-06
 Reference value :  8.25020e-06
 Reference value :  8.25020e-06
 Reference value :  8.25020e-06
 Reference value :  8.25021e-06
 Reference value :  8.25022e-06
 Reference value :  8.25023e-06
 Reference value :  8.25027e-06
 Reference value :  8.25033e-06
 Reference value :  8.25047e-06
 Reference value :  8.25064e-06
 Reference value :  8.25085e-06
 Reference value :  8.25127e-06
 Reference value :  8.25193e-06
 Reference value :  8.25261e-06
 Reference value :  8.25331e-06
 Reference value :  8.25422e-06
 Reference value :  8.25545e-06
 Reference value :  8.25660e-06
 Reference value :  8.25789e-06
 Reference value :  8.25953e-06
 Reference value :  8.26158e-06
 Reference value :  8.26424e-06
 Reference value :  8.26765e-06
 Reference value :  8.27257e-06
 Reference value :  8.28243e-06
 Reference value :  8.29636e-06
 Reference value :  8.32421e-06
 Reference value :  8.37991e-06
 Reference value :  8.48508e-06
 Reference value :  8.50000e-06
No. of Data Rows : 1416
ngspice-44 done
