
Note: Compatibility modes selected: hs a


Circuit: ** sch_path: /home/ece/cace/sar-adc-using-sky130-pdk/runs/run_2025-09-11_00-29-09/parameters/dnl/run_0/sar_output_dnl.sch

option SCALE: Scale is set to 1e-06 for instance and model parameters
option SCALE: Scale is set to 1e-06 for instance and model parameters
option SCALE: Scale is set to 1e-06 for instance and model parameters
option SCALE: Scale is set to 1e-06 for instance and model parameters
Doing analysis at TEMP = 27.000000 and TNOM = 27.000000

Using KLU as Direct Linear Solver
Operating point simulation skipped by 'uic',
  now using transient initial conditions.
 Reference value :  1.00000e-12
 Reference value :  1.02772e-12
 Reference value :  1.08316e-12
 Reference value :  1.19404e-12
 Reference value :  1.33846e-12
 Reference value :  1.62729e-12
 Reference value :  2.20497e-12
 Reference value :  3.05939e-12
 Reference value :  3.96223e-12
 Reference value :  5.17545e-12
 Reference value :  6.89158e-12
 Reference value :  1.02415e-11
 Reference value :  1.40800e-11
 Reference value :  2.08929e-11
 Reference value :  2.76405e-11
 Reference value :  3.67180e-11
 Reference value :  4.80087e-11
 Reference value :  6.53728e-11
 Reference value :  8.58811e-11
 Reference value :  1.00000e-10
 Reference value :  1.01193e-10
 Reference value :  1.03579e-10
 Reference value :  1.08352e-10
 Reference value :  1.17896e-10
 Reference value :  1.36985e-10
 Reference value :  1.75164e-10
 Reference value :  2.51520e-10
 Reference value :  4.03539e-10
 Reference value :  5.64221e-10
 Reference value :  8.28846e-10
 Reference value :  1.17750e-09
 Reference value :  1.61517e-09
 Reference value :  2.25237e-09
 Reference value :  3.03115e-09
 Reference value :  3.86750e-09
 Reference value :  4.70830e-09
 Reference value :  5.58096e-09
 Reference value :  6.79190e-09
 Reference value :  8.00807e-09
 Reference value :  9.28011e-09
 Reference value :  1.01391e-08
 Reference value :  1.09511e-08
 Reference value :  1.18336e-08
 Reference value :  1.27931e-08
 Reference value :  1.46999e-08
 Reference value :  1.71934e-08
 Reference value :  2.07712e-08
 Reference value :  2.49770e-08
 Reference value :  2.84231e-08
 Reference value :  3.19641e-08
 Reference value :  3.48856e-08
 Reference value :  3.79544e-08
 Reference value :  4.18409e-08
 Reference value :  4.77393e-08
 Reference value :  5.68727e-08
 Reference value :  7.10225e-08
 Reference value :  9.71942e-08
 Reference value :  1.47201e-07
 Reference value :  2.10174e-07
 Reference value :  2.50100e-07
 Reference value :  2.50110e-07
 Reference value :  2.50130e-07
 Reference value :  2.50170e-07
 Reference value :  2.50200e-07
 Reference value :  2.50201e-07
 Reference value :  2.50202e-07
 Reference value :  2.50204e-07
 Reference value :  2.50208e-07
 Reference value :  2.50216e-07
 Reference value :  2.50233e-07
 Reference value :  2.50266e-07
 Reference value :  2.50332e-07
 Reference value :  2.50408e-07
 Reference value :  2.50559e-07
 Reference value :  2.50706e-07
 Reference value :  2.51000e-07
 Reference value :  2.51328e-07
 Reference value :  2.51814e-07
 Reference value :  2.52369e-07
 Reference value :  2.52973e-07
 Reference value :  2.53861e-07
 Reference value :  2.54730e-07
 Reference value :  2.55539e-07
 Reference value :  2.56397e-07
 Reference value :  2.57284e-07
 Reference value :  2.58159e-07
 Reference value :  2.59693e-07
 Reference value :  2.61760e-07
 Reference value :  2.63982e-07
 Reference value :  2.67676e-07
 Reference value :  2.73182e-07
 Reference value :  2.84193e-07
 Reference value :  3.06217e-07
 Reference value :  3.46179e-07
 Reference value :  4.26104e-07
 Reference value :  5.00000e-07
 Reference value :  5.00010e-07
 Reference value :  5.00030e-07
 Reference value :  5.00070e-07
 Reference value :  5.00100e-07
 Reference value :  5.00104e-07
 Reference value :  5.00113e-07
 Reference value :  5.00130e-07
 Reference value :  5.00163e-07
 Reference value :  5.00231e-07
 Reference value :  5.00366e-07
 Reference value :  5.00553e-07
 Reference value :  5.00927e-07
 Reference value :  5.01510e-07
 Reference value :  5.02040e-07
 Reference value :  5.02609e-07
 Reference value :  5.03288e-07
 Reference value :  5.04079e-07
 Reference value :  5.04828e-07
 Reference value :  5.05642e-07
 Reference value :  5.06668e-07
 Reference value :  5.07755e-07
 Reference value :  5.09486e-07
 Reference value :  5.12227e-07
 Reference value :  5.14062e-07
 Reference value :  5.16137e-07
 Reference value :  5.18338e-07
 Reference value :  5.20723e-07
 Reference value :  5.23450e-07
 Reference value :  5.27988e-07
 Reference value :  5.34634e-07
 Reference value :  5.45822e-07
 Reference value :  5.65435e-07
 Reference value :  5.98748e-07
 Reference value :  6.59306e-07
 Reference value :  7.50100e-07
 Reference value :  7.50110e-07
 Reference value :  7.50130e-07
 Reference value :  7.50170e-07
 Reference value :  7.50200e-07
 Reference value :  7.50201e-07
 Reference value :  7.50202e-07
 Reference value :  7.50205e-07
 Reference value :  7.50211e-07
 Reference value :  7.50223e-07
 Reference value :  7.50247e-07
 Reference value :  7.50295e-07
 Reference value :  7.50390e-07
 Reference value :  7.50580e-07
 Reference value :  7.50954e-07
 Reference value :  7.51429e-07
 Reference value :  7.51992e-07
 Reference value :  7.52594e-07
 Reference value :  7.53250e-07
 Reference value :  7.54105e-07
 Reference value :  7.54725e-07
 Reference value :  7.55452e-07
 Reference value :  7.56121e-07
 Reference value :  7.56853e-07
 Reference value :  7.57765e-07
 Reference value :  7.58760e-07
 Reference value :  7.60750e-07
 Reference value :  7.62908e-07
 Reference value :  7.66537e-07
 Reference value :  7.71134e-07
 Reference value :  7.80328e-07
 Reference value :  7.98716e-07
 Reference value :  8.35491e-07
 Reference value :  9.09042e-07
 Reference value :  1.00000e-06
 Reference value :  1.00001e-06
 Reference value :  1.00003e-06
 Reference value :  1.00007e-06
 Reference value :  1.00010e-06
 Reference value :  1.00010e-06
 Reference value :  1.00011e-06
 Reference value :  1.00013e-06
 Reference value :  1.00016e-06
 Reference value :  1.00023e-06
 Reference value :  1.00036e-06
 Reference value :  1.00055e-06
 Reference value :  1.00092e-06
 Reference value :  1.00145e-06
 Reference value :  1.00198e-06
 Reference value :  1.00255e-06
 Reference value :  1.00322e-06
 Reference value :  1.00397e-06
 Reference value :  1.00472e-06
 Reference value :  1.00541e-06
 Reference value :  1.00613e-06
 Reference value :  1.00694e-06
 Reference value :  1.00770e-06
 Reference value :  1.00853e-06
 Reference value :  1.00971e-06
 Reference value :  1.01103e-06
 Reference value :  1.01329e-06
 Reference value :  1.01571e-06
 Reference value :  1.01765e-06
 Reference value :  1.01939e-06
 Reference value :  1.02066e-06
 Reference value :  1.02205e-06
 Reference value :  1.02362e-06
 Reference value :  1.02517e-06
 Reference value :  1.02703e-06
 Reference value :  1.02974e-06
 Reference value :  1.03265e-06
 Reference value :  1.03847e-06
 Reference value :  1.04334e-06
 Reference value :  1.04804e-06
 Reference value :  1.05244e-06
 Reference value :  1.05587e-06
 Reference value :  1.05997e-06
 Reference value :  1.06299e-06
 Reference value :  1.06638e-06
 Reference value :  1.07149e-06
 Reference value :  1.07627e-06
 Reference value :  1.08300e-06
 Reference value :  1.08933e-06
 Reference value :  1.09630e-06
 Reference value :  1.10359e-06
 Reference value :  1.11817e-06
 Reference value :  1.13707e-06
 Reference value :  1.16763e-06
 Reference value :  1.22367e-06
 Reference value :  1.25010e-06
 Reference value :  1.25011e-06
 Reference value :  1.25013e-06
 Reference value :  1.25017e-06
 Reference value :  1.25020e-06
 Reference value :  1.25020e-06
 Reference value :  1.25020e-06
 Reference value :  1.25021e-06
 Reference value :  1.25021e-06
 Reference value :  1.25022e-06
 Reference value :  1.25025e-06
 Reference value :  1.25029e-06
 Reference value :  1.25039e-06
 Reference value :  1.25058e-06
 Reference value :  1.25091e-06
 Reference value :  1.25141e-06
 Reference value :  1.25204e-06
 Reference value :  1.25262e-06
 Reference value :  1.25330e-06
 Reference value :  1.25413e-06
 Reference value :  1.25472e-06
 Reference value :  1.25540e-06
 Reference value :  1.25624e-06
 Reference value :  1.25722e-06
 Reference value :  1.25822e-06
 Reference value :  1.26022e-06
 Reference value :  1.26213e-06
 Reference value :  1.26532e-06
 Reference value :  1.26917e-06
 Reference value :  1.27688e-06
 Reference value :  1.29231e-06
 Reference value :  1.32315e-06
 Reference value :  1.38485e-06
 Reference value :  1.50000e-06
 Reference value :  1.50001e-06
 Reference value :  1.50003e-06
 Reference value :  1.50007e-06
 Reference value :  1.50010e-06
 Reference value :  1.50010e-06
 Reference value :  1.50011e-06
 Reference value :  1.50013e-06
 Reference value :  1.50016e-06
 Reference value :  1.50023e-06
 Reference value :  1.50037e-06
 Reference value :  1.50054e-06
 Reference value :  1.50090e-06
 Reference value :  1.50140e-06
 Reference value :  1.50191e-06
 Reference value :  1.50242e-06
 Reference value :  1.50304e-06
 Reference value :  1.50370e-06
 Reference value :  1.50457e-06
 Reference value :  1.50537e-06
 Reference value :  1.50630e-06
 Reference value :  1.50760e-06
 Reference value :  1.50904e-06
 Reference value :  1.51043e-06
 Reference value :  1.51184e-06
 Reference value :  1.51314e-06
 Reference value :  1.51457e-06
 Reference value :  1.51599e-06
 Reference value :  1.51762e-06
 Reference value :  1.52090e-06
 Reference value :  1.52653e-06
 Reference value :  1.53729e-06
 Reference value :  1.55880e-06
 Reference value :  1.60182e-06
 Reference value :  1.68787e-06
 Reference value :  1.75010e-06
 Reference value :  1.75011e-06
 Reference value :  1.75013e-06
 Reference value :  1.75017e-06
 Reference value :  1.75020e-06
 Reference value :  1.75020e-06
 Reference value :  1.75020e-06
 Reference value :  1.75021e-06
 Reference value :  1.75021e-06
 Reference value :  1.75022e-06
 Reference value :  1.75025e-06
 Reference value :  1.75029e-06
 Reference value :  1.75039e-06
 Reference value :  1.75058e-06
 Reference value :  1.75091e-06
 Reference value :  1.75141e-06
 Reference value :  1.75204e-06
 Reference value :  1.75262e-06
 Reference value :  1.75330e-06
 Reference value :  1.75415e-06
 Reference value :  1.75475e-06
 Reference value :  1.75545e-06
 Reference value :  1.75614e-06
 Reference value :  1.75688e-06
 Reference value :  1.75785e-06
 Reference value :  1.75890e-06
 Reference value :  1.76008e-06
 Reference value :  1.76151e-06
 Reference value :  1.76362e-06
 Reference value :  1.76564e-06
 Reference value :  1.76927e-06
 Reference value :  1.77381e-06
 Reference value :  1.78288e-06
 Reference value :  1.80102e-06
 Reference value :  1.83731e-06
 Reference value :  1.90987e-06
 Reference value :  2.00000e-06
 Reference value :  2.00001e-06
 Reference value :  2.00003e-06
 Reference value :  2.00007e-06
 Reference value :  2.00010e-06
 Reference value :  2.00010e-06
 Reference value :  2.00011e-06
 Reference value :  2.00013e-06
 Reference value :  2.00016e-06
 Reference value :  2.00023e-06
 Reference value :  2.00036e-06
 Reference value :  2.00054e-06
 Reference value :  2.00089e-06
 Reference value :  2.00139e-06
 Reference value :  2.00190e-06
 Reference value :  2.00243e-06
 Reference value :  2.00309e-06
 Reference value :  2.00375e-06
 Reference value :  2.00452e-06
 Reference value :  2.00515e-06
 Reference value :  2.00585e-06
 Reference value :  2.00653e-06
 Reference value :  2.00722e-06
 Reference value :  2.00797e-06
 Reference value :  2.00886e-06
 Reference value :  2.00988e-06
 Reference value :  2.01149e-06
 Reference value :  2.01378e-06
 Reference value :  2.01532e-06
 Reference value :  2.01706e-06
 Reference value :  2.01870e-06
 Reference value :  2.01995e-06
 Reference value :  2.02112e-06
 Reference value :  2.02221e-06
 Reference value :  2.02347e-06
 Reference value :  2.02497e-06
 Reference value :  2.02647e-06
 Reference value :  2.02900e-06
 Reference value :  2.03202e-06
 Reference value :  2.03808e-06
 Reference value :  2.04941e-06
 Reference value :  2.06775e-06
 Reference value :  2.10428e-06
 Reference value :  2.14783e-06
 Reference value :  2.20499e-06
 Reference value :  2.25010e-06
 Reference value :  2.25011e-06
 Reference value :  2.25013e-06
 Reference value :  2.25017e-06
 Reference value :  2.25020e-06
 Reference value :  2.25020e-06
 Reference value :  2.25020e-06
 Reference value :  2.25021e-06
 Reference value :  2.25021e-06
 Reference value :  2.25022e-06
 Reference value :  2.25025e-06
 Reference value :  2.25029e-06
 Reference value :  2.25039e-06
 Reference value :  2.25058e-06
 Reference value :  2.25091e-06
 Reference value :  2.25141e-06
 Reference value :  2.25198e-06
 Reference value :  2.25258e-06
 Reference value :  2.25323e-06
 Reference value :  2.25406e-06
 Reference value :  2.25467e-06
 Reference value :  2.25538e-06
 Reference value :  2.25618e-06
 Reference value :  2.25700e-06
 Reference value :  2.25810e-06
 Reference value :  2.25979e-06
 Reference value :  2.26175e-06
 Reference value :  2.26451e-06
 Reference value :  2.26838e-06
 Reference value :  2.27610e-06
 Reference value :  2.29156e-06
 Reference value :  2.32247e-06
 Reference value :  2.38430e-06
 Reference value :  2.44066e-06
 Reference value :  2.50000e-06
 Reference value :  2.50001e-06
 Reference value :  2.50003e-06
 Reference value :  2.50007e-06
 Reference value :  2.50010e-06
 Reference value :  2.50010e-06
 Reference value :  2.50011e-06
 Reference value :  2.50013e-06
 Reference value :  2.50016e-06
 Reference value :  2.50023e-06
 Reference value :  2.50036e-06
 Reference value :  2.50054e-06
 Reference value :  2.50089e-06
 Reference value :  2.50139e-06
 Reference value :  2.50190e-06
 Reference value :  2.50240e-06
 Reference value :  2.50303e-06
 Reference value :  2.50367e-06
 Reference value :  2.50454e-06
 Reference value :  2.50535e-06
 Reference value :  2.50627e-06
 Reference value :  2.50760e-06
 Reference value :  2.50901e-06
 Reference value :  2.51044e-06
 Reference value :  2.51183e-06
 Reference value :  2.51311e-06
 Reference value :  2.51453e-06
 Reference value :  2.51592e-06
 Reference value :  2.51755e-06
 Reference value :  2.52081e-06
 Reference value :  2.52595e-06
 Reference value :  2.53623e-06
 Reference value :  2.55679e-06
 Reference value :  2.59790e-06
 Reference value :  2.68013e-06
 Reference value :  2.75010e-06
 Reference value :  2.75011e-06
 Reference value :  2.75013e-06
 Reference value :  2.75017e-06
 Reference value :  2.75020e-06
 Reference value :  2.75020e-06
 Reference value :  2.75020e-06
 Reference value :  2.75021e-06
 Reference value :  2.75021e-06
 Reference value :  2.75022e-06
 Reference value :  2.75025e-06
 Reference value :  2.75029e-06
 Reference value :  2.75039e-06
 Reference value :  2.75058e-06
 Reference value :  2.75091e-06
 Reference value :  2.75140e-06
 Reference value :  2.75198e-06
 Reference value :  2.75258e-06
 Reference value :  2.75323e-06
 Reference value :  2.75407e-06
 Reference value :  2.75468e-06
 Reference value :  2.75540e-06
 Reference value :  2.75605e-06
 Reference value :  2.75677e-06
 Reference value :  2.75767e-06
 Reference value :  2.75867e-06
 Reference value :  2.75970e-06
 Reference value :  2.76119e-06
 Reference value :  2.76285e-06
 Reference value :  2.76513e-06
 Reference value :  2.76796e-06
 Reference value :  2.77218e-06
 Reference value :  2.78062e-06
 Reference value :  2.79670e-06
 Reference value :  2.82886e-06
 Reference value :  2.89318e-06
 Reference value :  3.00000e-06
 Reference value :  3.00001e-06
 Reference value :  3.00003e-06
 Reference value :  3.00007e-06
 Reference value :  3.00010e-06
 Reference value :  3.00010e-06
 Reference value :  3.00011e-06
 Reference value :  3.00013e-06
 Reference value :  3.00016e-06
 Reference value :  3.00023e-06
 Reference value :  3.00036e-06
 Reference value :  3.00054e-06
 Reference value :  3.00089e-06
 Reference value :  3.00139e-06
 Reference value :  3.00190e-06
 Reference value :  3.00243e-06
 Reference value :  3.00309e-06
 Reference value :  3.00375e-06
 Reference value :  3.00452e-06
 Reference value :  3.00515e-06
 Reference value :  3.00585e-06
 Reference value :  3.00654e-06
 Reference value :  3.00723e-06
 Reference value :  3.00797e-06
 Reference value :  3.00889e-06
 Reference value :  3.00988e-06
 Reference value :  3.01155e-06
 Reference value :  3.01316e-06
 Reference value :  3.01461e-06
 Reference value :  3.01613e-06
 Reference value :  3.01769e-06
 Reference value :  3.01890e-06
 Reference value :  3.02007e-06
 Reference value :  3.02152e-06
 Reference value :  3.02289e-06
 Reference value :  3.02421e-06
 Reference value :  3.02588e-06
 Reference value :  3.02811e-06
 Reference value :  3.03040e-06
 Reference value :  3.03450e-06
 Reference value :  3.04027e-06
 Reference value :  3.04961e-06
 Reference value :  3.06529e-06
 Reference value :  3.08925e-06
 Reference value :  3.12840e-06
 Reference value :  3.15424e-06
 Reference value :  3.18518e-06
 Reference value :  3.20495e-06
 Reference value :  3.22698e-06
 Reference value :  3.24872e-06
 Reference value :  3.25010e-06
 Reference value :  3.25011e-06
 Reference value :  3.25013e-06
 Reference value :  3.25017e-06
 Reference value :  3.25020e-06
 Reference value :  3.25020e-06
 Reference value :  3.25020e-06
 Reference value :  3.25021e-06
 Reference value :  3.25021e-06
 Reference value :  3.25022e-06
 Reference value :  3.25025e-06
 Reference value :  3.25029e-06
 Reference value :  3.25039e-06
 Reference value :  3.25057e-06
 Reference value :  3.25090e-06
 Reference value :  3.25139e-06
 Reference value :  3.25202e-06
 Reference value :  3.25260e-06
 Reference value :  3.25328e-06
 Reference value :  3.25412e-06
 Reference value :  3.25472e-06
 Reference value :  3.25542e-06
 Reference value :  3.25629e-06
 Reference value :  3.25717e-06
 Reference value :  3.25824e-06
 Reference value :  3.26012e-06
 Reference value :  3.26204e-06
 Reference value :  3.26512e-06
 Reference value :  3.26899e-06
 Reference value :  3.27672e-06
 Reference value :  3.29220e-06
 Reference value :  3.32314e-06
 Reference value :  3.38502e-06
 Reference value :  3.50000e-06
 Reference value :  3.50001e-06
 Reference value :  3.50003e-06
 Reference value :  3.50007e-06
 Reference value :  3.50010e-06
 Reference value :  3.50010e-06
 Reference value :  3.50011e-06
 Reference value :  3.50013e-06
 Reference value :  3.50016e-06
 Reference value :  3.50023e-06
 Reference value :  3.50037e-06
 Reference value :  3.50054e-06
 Reference value :  3.50090e-06
 Reference value :  3.50140e-06
 Reference value :  3.50191e-06
 Reference value :  3.50242e-06
 Reference value :  3.50304e-06
 Reference value :  3.50370e-06
 Reference value :  3.50456e-06
 Reference value :  3.50535e-06
 Reference value :  3.50630e-06
 Reference value :  3.50743e-06
 Reference value :  3.50872e-06
 Reference value :  3.50987e-06
 Reference value :  3.51106e-06
 Reference value :  3.51250e-06
 Reference value :  3.51408e-06
 Reference value :  3.51569e-06
 Reference value :  3.51758e-06
 Reference value :  3.52102e-06
 Reference value :  3.52603e-06
 Reference value :  3.53569e-06
 Reference value :  3.55395e-06
 Reference value :  3.58773e-06
 Reference value :  3.65529e-06
 Reference value :  3.75010e-06
 Reference value :  3.75011e-06
 Reference value :  3.75013e-06
 Reference value :  3.75017e-06
 Reference value :  3.75020e-06
 Reference value :  3.75020e-06
 Reference value :  3.75020e-06
 Reference value :  3.75021e-06
 Reference value :  3.75021e-06
 Reference value :  3.75022e-06
 Reference value :  3.75025e-06
 Reference value :  3.75029e-06
 Reference value :  3.75039e-06
 Reference value :  3.75058e-06
 Reference value :  3.75091e-06
 Reference value :  3.75140e-06
 Reference value :  3.75198e-06
 Reference value :  3.75258e-06
 Reference value :  3.75322e-06
 Reference value :  3.75407e-06
 Reference value :  3.75469e-06
 Reference value :  3.75540e-06
 Reference value :  3.75605e-06
 Reference value :  3.75678e-06
 Reference value :  3.75767e-06
 Reference value :  3.75867e-06
 Reference value :  3.75970e-06
 Reference value :  3.76119e-06
 Reference value :  3.76286e-06
 Reference value :  3.76514e-06
 Reference value :  3.76797e-06
 Reference value :  3.77220e-06
 Reference value :  3.78066e-06
 Reference value :  3.79718e-06
 Reference value :  3.83022e-06
 Reference value :  3.89631e-06
 Reference value :  4.00000e-06
 Reference value :  4.00001e-06
 Reference value :  4.00003e-06
 Reference value :  4.00007e-06
 Reference value :  4.00010e-06
 Reference value :  4.00010e-06
 Reference value :  4.00011e-06
 Reference value :  4.00013e-06
 Reference value :  4.00016e-06
 Reference value :  4.00023e-06
 Reference value :  4.00036e-06
 Reference value :  4.00054e-06
 Reference value :  4.00089e-06
 Reference value :  4.00139e-06
 Reference value :  4.00190e-06
 Reference value :  4.00243e-06
 Reference value :  4.00309e-06
 Reference value :  4.00375e-06
 Reference value :  4.00452e-06
 Reference value :  4.00515e-06
 Reference value :  4.00584e-06
 Reference value :  4.00653e-06
 Reference value :  4.00720e-06
 Reference value :  4.00793e-06
 Reference value :  4.00888e-06
 Reference value :  4.00986e-06
 Reference value :  4.01133e-06
 Reference value :  4.01253e-06
 Reference value :  4.01383e-06
 Reference value :  4.01514e-06
 Reference value :  4.01658e-06
 Reference value :  4.01797e-06
 Reference value :  4.01900e-06
 Reference value :  4.02004e-06
 Reference value :  4.02126e-06
 Reference value :  4.02242e-06
 Reference value :  4.02363e-06
 Reference value :  4.02504e-06
 Reference value :  4.02698e-06
 Reference value :  4.02909e-06
 Reference value :  4.03258e-06
 Reference value :  4.03847e-06
 Reference value :  4.04708e-06
 Reference value :  4.05615e-06
 Reference value :  4.06451e-06
 Reference value :  4.07160e-06
 Reference value :  4.07646e-06
 Reference value :  4.08028e-06
 Reference value :  4.08447e-06
 Reference value :  4.09286e-06
 Reference value :  4.10787e-06
 Reference value :  4.12292e-06
 Reference value :  4.14398e-06
 Reference value :  4.17316e-06
 Reference value :  4.21400e-06
 Reference value :  4.25010e-06
 Reference value :  4.25011e-06
 Reference value :  4.25013e-06
 Reference value :  4.25017e-06
 Reference value :  4.25020e-06
 Reference value :  4.25020e-06
 Reference value :  4.25020e-06
 Reference value :  4.25021e-06
 Reference value :  4.25021e-06
 Reference value :  4.25022e-06
 Reference value :  4.25025e-06
 Reference value :  4.25029e-06
 Reference value :  4.25039e-06
 Reference value :  4.25058e-06
 Reference value :  4.25091e-06
 Reference value :  4.25140e-06
 Reference value :  4.25204e-06
 Reference value :  4.25261e-06
 Reference value :  4.25330e-06
 Reference value :  4.25414e-06
 Reference value :  4.25475e-06
 Reference value :  4.25545e-06
 Reference value :  4.25634e-06
 Reference value :  4.25722e-06
 Reference value :  4.25830e-06
 Reference value :  4.26021e-06
 Reference value :  4.26215e-06
 Reference value :  4.26530e-06
 Reference value :  4.26922e-06
 Reference value :  4.27705e-06
 Reference value :  4.29272e-06
 Reference value :  4.32405e-06
 Reference value :  4.38671e-06
 Reference value :  4.50000e-06
 Reference value :  4.50001e-06
 Reference value :  4.50003e-06
 Reference value :  4.50007e-06
 Reference value :  4.50010e-06
 Reference value :  4.50010e-06
 Reference value :  4.50011e-06
 Reference value :  4.50013e-06
 Reference value :  4.50016e-06
 Reference value :  4.50023e-06
 Reference value :  4.50037e-06
 Reference value :  4.50054e-06
 Reference value :  4.50090e-06
 Reference value :  4.50139e-06
 Reference value :  4.50191e-06
 Reference value :  4.50245e-06
 Reference value :  4.50311e-06
 Reference value :  4.50377e-06
 Reference value :  4.50451e-06
 Reference value :  4.50536e-06
 Reference value :  4.50619e-06
 Reference value :  4.50732e-06
 Reference value :  4.50870e-06
 Reference value :  4.50995e-06
 Reference value :  4.51122e-06
 Reference value :  4.51239e-06
 Reference value :  4.51373e-06
 Reference value :  4.51505e-06
 Reference value :  4.51658e-06
 Reference value :  4.51964e-06
 Reference value :  4.52534e-06
 Reference value :  4.53644e-06
 Reference value :  4.55862e-06
 Reference value :  4.60298e-06
 Reference value :  4.69171e-06
 Reference value :  4.75010e-06
 Reference value :  4.75011e-06
 Reference value :  4.75013e-06
 Reference value :  4.75017e-06
 Reference value :  4.75020e-06
 Reference value :  4.75020e-06
 Reference value :  4.75020e-06
 Reference value :  4.75021e-06
 Reference value :  4.75021e-06
 Reference value :  4.75022e-06
 Reference value :  4.75025e-06
 Reference value :  4.75029e-06
 Reference value :  4.75039e-06
 Reference value :  4.75058e-06
 Reference value :  4.75091e-06
 Reference value :  4.75140e-06
 Reference value :  4.75204e-06
 Reference value :  4.75261e-06
 Reference value :  4.75330e-06
 Reference value :  4.75414e-06
 Reference value :  4.75475e-06
 Reference value :  4.75545e-06
 Reference value :  4.75614e-06
 Reference value :  4.75687e-06
 Reference value :  4.75782e-06
 Reference value :  4.75887e-06
 Reference value :  4.76097e-06
 Reference value :  4.76315e-06
 Reference value :  4.76694e-06
 Reference value :  4.77179e-06
 Reference value :  4.78149e-06
 Reference value :  4.80090e-06
 Reference value :  4.83971e-06
 Reference value :  4.91734e-06
 Reference value :  5.00000e-06
 Reference value :  5.00001e-06
 Reference value :  5.00003e-06
 Reference value :  5.00007e-06
 Reference value :  5.00010e-06
 Reference value :  5.00010e-06
 Reference value :  5.00011e-06
 Reference value :  5.00013e-06
 Reference value :  5.00016e-06
 Reference value :  5.00023e-06
 Reference value :  5.00036e-06
 Reference value :  5.00054e-06
 Reference value :  5.00089e-06
 Reference value :  5.00138e-06
 Reference value :  5.00189e-06
 Reference value :  5.00243e-06
 Reference value :  5.00309e-06
 Reference value :  5.00375e-06
 Reference value :  5.00452e-06
 Reference value :  5.00518e-06
 Reference value :  5.00589e-06
 Reference value :  5.00676e-06
 Reference value :  5.00755e-06
 Reference value :  5.00839e-06
 Reference value :  5.00956e-06
 Reference value :  5.01076e-06
 Reference value :  5.01294e-06
 Reference value :  5.01553e-06
 Reference value :  5.01747e-06
 Reference value :  5.01913e-06
 Reference value :  5.02073e-06
 Reference value :  5.02236e-06
 Reference value :  5.02401e-06
 Reference value :  5.02584e-06
 Reference value :  5.02779e-06
 Reference value :  5.03056e-06
 Reference value :  5.03425e-06
 Reference value :  5.03990e-06
 Reference value :  5.04566e-06
 Reference value :  5.05176e-06
 Reference value :  5.05640e-06
 Reference value :  5.06120e-06
 Reference value :  5.06634e-06
 Reference value :  5.07166e-06
 Reference value :  5.07920e-06
 Reference value :  5.08663e-06
 Reference value :  5.09362e-06
 Reference value :  5.10264e-06
 Reference value :  5.11840e-06
 Reference value :  5.13931e-06
 Reference value :  5.17338e-06
 Reference value :  5.22471e-06
 Reference value :  5.25010e-06
 Reference value :  5.25011e-06
 Reference value :  5.25013e-06
 Reference value :  5.25017e-06
 Reference value :  5.25020e-06
 Reference value :  5.25020e-06
 Reference value :  5.25020e-06
 Reference value :  5.25021e-06
 Reference value :  5.25021e-06
 Reference value :  5.25022e-06
 Reference value :  5.25025e-06
 Reference value :  5.25029e-06
 Reference value :  5.25039e-06
 Reference value :  5.25057e-06
 Reference value :  5.25090e-06
 Reference value :  5.25139e-06
 Reference value :  5.25201e-06
 Reference value :  5.25260e-06
 Reference value :  5.25328e-06
 Reference value :  5.25413e-06
 Reference value :  5.25472e-06
 Reference value :  5.25541e-06
 Reference value :  5.25624e-06
 Reference value :  5.25724e-06
 Reference value :  5.25822e-06
 Reference value :  5.26018e-06
 Reference value :  5.26210e-06
 Reference value :  5.26526e-06
 Reference value :  5.26912e-06
 Reference value :  5.27684e-06
 Reference value :  5.29229e-06
 Reference value :  5.32317e-06
 Reference value :  5.38495e-06
 Reference value :  5.50000e-06
 Reference value :  5.50001e-06
 Reference value :  5.50003e-06
 Reference value :  5.50007e-06
 Reference value :  5.50010e-06
 Reference value :  5.50010e-06
 Reference value :  5.50011e-06
 Reference value :  5.50013e-06
 Reference value :  5.50016e-06
 Reference value :  5.50023e-06
 Reference value :  5.50037e-06
 Reference value :  5.50054e-06
 Reference value :  5.50090e-06
 Reference value :  5.50140e-06
 Reference value :  5.50191e-06
 Reference value :  5.50242e-06
 Reference value :  5.50304e-06
 Reference value :  5.50370e-06
 Reference value :  5.50456e-06
 Reference value :  5.50538e-06
 Reference value :  5.50630e-06
 Reference value :  5.50761e-06
 Reference value :  5.50882e-06
 Reference value :  5.51017e-06
 Reference value :  5.51150e-06
 Reference value :  5.51282e-06
 Reference value :  5.51418e-06
 Reference value :  5.51572e-06
 Reference value :  5.51745e-06
 Reference value :  5.52055e-06
 Reference value :  5.52510e-06
 Reference value :  5.53373e-06
 Reference value :  5.54977e-06
 Reference value :  5.57947e-06
 Reference value :  5.63845e-06
 Reference value :  5.75010e-06
 Reference value :  5.75011e-06
 Reference value :  5.75013e-06
 Reference value :  5.75017e-06
 Reference value :  5.75020e-06
 Reference value :  5.75020e-06
 Reference value :  5.75020e-06
 Reference value :  5.75021e-06
 Reference value :  5.75021e-06
 Reference value :  5.75022e-06
 Reference value :  5.75025e-06
 Reference value :  5.75029e-06
 Reference value :  5.75039e-06
 Reference value :  5.75058e-06
 Reference value :  5.75091e-06
 Reference value :  5.75141e-06
 Reference value :  5.75204e-06
 Reference value :  5.75261e-06
 Reference value :  5.75330e-06
 Reference value :  5.75414e-06
 Reference value :  5.75475e-06
 Reference value :  5.75544e-06
 Reference value :  5.75614e-06
 Reference value :  5.75687e-06
 Reference value :  5.75784e-06
 Reference value :  5.75889e-06
 Reference value :  5.75998e-06
 Reference value :  5.76145e-06
 Reference value :  5.76343e-06
 Reference value :  5.76550e-06
 Reference value :  5.76895e-06
 Reference value :  5.77339e-06
 Reference value :  5.78228e-06
 Reference value :  5.80005e-06
 Reference value :  5.83560e-06
 Reference value :  5.90671e-06
 Reference value :  6.00000e-06
 Reference value :  6.00001e-06
 Reference value :  6.00003e-06
 Reference value :  6.00007e-06
 Reference value :  6.00010e-06
 Reference value :  6.00010e-06
 Reference value :  6.00011e-06
 Reference value :  6.00013e-06
 Reference value :  6.00016e-06
 Reference value :  6.00023e-06
 Reference value :  6.00036e-06
 Reference value :  6.00054e-06
 Reference value :  6.00089e-06
 Reference value :  6.00139e-06
 Reference value :  6.00190e-06
 Reference value :  6.00243e-06
 Reference value :  6.00309e-06
 Reference value :  6.00375e-06
 Reference value :  6.00452e-06
 Reference value :  6.00515e-06
 Reference value :  6.00584e-06
 Reference value :  6.00654e-06
 Reference value :  6.00726e-06
 Reference value :  6.00801e-06
 Reference value :  6.00908e-06
 Reference value :  6.01014e-06
 Reference value :  6.01205e-06
 Reference value :  6.01326e-06
 Reference value :  6.01466e-06
 Reference value :  6.01601e-06
 Reference value :  6.01753e-06
 Reference value :  6.01894e-06
 Reference value :  6.02041e-06
 Reference value :  6.02185e-06
 Reference value :  6.02325e-06
 Reference value :  6.02467e-06
 Reference value :  6.02633e-06
 Reference value :  6.02857e-06
 Reference value :  6.03099e-06
 Reference value :  6.03552e-06
 Reference value :  6.04175e-06
 Reference value :  6.05089e-06
 Reference value :  6.05928e-06
 Reference value :  6.07110e-06
 Reference value :  6.08956e-06
 Reference value :  6.12648e-06
 Reference value :  6.17468e-06
 Reference value :  6.24653e-06
 Reference value :  6.25010e-06
 Reference value :  6.25011e-06
 Reference value :  6.25013e-06
 Reference value :  6.25017e-06
 Reference value :  6.25020e-06
 Reference value :  6.25020e-06
 Reference value :  6.25020e-06
 Reference value :  6.25021e-06
 Reference value :  6.25021e-06
 Reference value :  6.25022e-06
 Reference value :  6.25025e-06
 Reference value :  6.25029e-06
 Reference value :  6.25039e-06
 Reference value :  6.25057e-06
 Reference value :  6.25090e-06
 Reference value :  6.25139e-06
 Reference value :  6.25202e-06
 Reference value :  6.25260e-06
 Reference value :  6.25328e-06
 Reference value :  6.25412e-06
 Reference value :  6.25472e-06
 Reference value :  6.25541e-06
 Reference value :  6.25629e-06
 Reference value :  6.25719e-06
 Reference value :  6.25825e-06
 Reference value :  6.26013e-06
 Reference value :  6.26206e-06
 Reference value :  6.26516e-06
 Reference value :  6.26904e-06
 Reference value :  6.27680e-06
 Reference value :  6.29232e-06
 Reference value :  6.32336e-06
 Reference value :  6.38544e-06
 Reference value :  6.50000e-06
 Reference value :  6.50001e-06
 Reference value :  6.50003e-06
 Reference value :  6.50007e-06
 Reference value :  6.50010e-06
 Reference value :  6.50010e-06
 Reference value :  6.50011e-06
 Reference value :  6.50013e-06
 Reference value :  6.50016e-06
 Reference value :  6.50023e-06
 Reference value :  6.50037e-06
 Reference value :  6.50054e-06
 Reference value :  6.50090e-06
 Reference value :  6.50140e-06
 Reference value :  6.50191e-06
 Reference value :  6.50242e-06
 Reference value :  6.50304e-06
 Reference value :  6.50370e-06
 Reference value :  6.50456e-06
 Reference value :  6.50535e-06
 Reference value :  6.50628e-06
 Reference value :  6.50743e-06
 Reference value :  6.50873e-06
 Reference value :  6.50988e-06
 Reference value :  6.51108e-06
 Reference value :  6.51219e-06
 Reference value :  6.51350e-06
 Reference value :  6.51482e-06
 Reference value :  6.51630e-06
 Reference value :  6.51928e-06
 Reference value :  6.52523e-06
 Reference value :  6.53559e-06
 Reference value :  6.55630e-06
 Reference value :  6.59773e-06
 Reference value :  6.68058e-06
 Reference value :  6.75010e-06
 Reference value :  6.75011e-06
 Reference value :  6.75013e-06
 Reference value :  6.75017e-06
 Reference value :  6.75020e-06
 Reference value :  6.75020e-06
 Reference value :  6.75020e-06
 Reference value :  6.75021e-06
 Reference value :  6.75021e-06
 Reference value :  6.75022e-06
 Reference value :  6.75025e-06
 Reference value :  6.75029e-06
 Reference value :  6.75039e-06
 Reference value :  6.75058e-06
 Reference value :  6.75091e-06
 Reference value :  6.75141e-06
 Reference value :  6.75204e-06
 Reference value :  6.75262e-06
 Reference value :  6.75330e-06
 Reference value :  6.75415e-06
 Reference value :  6.75476e-06
 Reference value :  6.75545e-06
 Reference value :  6.75615e-06
 Reference value :  6.75688e-06
 Reference value :  6.75786e-06
 Reference value :  6.75892e-06
 Reference value :  6.76008e-06
 Reference value :  6.76152e-06
 Reference value :  6.76363e-06
 Reference value :  6.76565e-06
 Reference value :  6.76931e-06
 Reference value :  6.77387e-06
 Reference value :  6.78298e-06
 Reference value :  6.80122e-06
 Reference value :  6.83770e-06
 Reference value :  6.91066e-06
 Reference value :  7.00000e-06
 Reference value :  7.00001e-06
 Reference value :  7.00003e-06
 Reference value :  7.00007e-06
 Reference value :  7.00010e-06
 Reference value :  7.00010e-06
 Reference value :  7.00011e-06
 Reference value :  7.00013e-06
 Reference value :  7.00016e-06
 Reference value :  7.00023e-06
 Reference value :  7.00036e-06
 Reference value :  7.00054e-06
 Reference value :  7.00089e-06
 Reference value :  7.00139e-06
 Reference value :  7.00190e-06
 Reference value :  7.00243e-06
 Reference value :  7.00309e-06
 Reference value :  7.00375e-06
 Reference value :  7.00452e-06
 Reference value :  7.00515e-06
 Reference value :  7.00584e-06
 Reference value :  7.00653e-06
 Reference value :  7.00722e-06
 Reference value :  7.00794e-06
 Reference value :  7.00900e-06
 Reference value :  7.01000e-06
 Reference value :  7.01151e-06
 Reference value :  7.01299e-06
 Reference value :  7.01436e-06
 Reference value :  7.01585e-06
 Reference value :  7.01745e-06
 Reference value :  7.01929e-06
 Reference value :  7.02052e-06
 Reference value :  7.02185e-06
 Reference value :  7.02310e-06
 Reference value :  7.02440e-06
 Reference value :  7.02591e-06
 Reference value :  7.02801e-06
 Reference value :  7.03018e-06
 Reference value :  7.03406e-06
 Reference value :  7.03978e-06
 Reference value :  7.04650e-06
 Reference value :  7.05613e-06
 Reference value :  7.07539e-06
 Reference value :  7.10330e-06
 Reference value :  7.14928e-06
 Reference value :  7.19156e-06
 Reference value :  7.25010e-06
 Reference value :  7.25011e-06
 Reference value :  7.25013e-06
 Reference value :  7.25017e-06
 Reference value :  7.25020e-06
 Reference value :  7.25020e-06
 Reference value :  7.25020e-06
 Reference value :  7.25021e-06
 Reference value :  7.25021e-06
 Reference value :  7.25022e-06
 Reference value :  7.25025e-06
 Reference value :  7.25029e-06
 Reference value :  7.25039e-06
 Reference value :  7.25058e-06
 Reference value :  7.25092e-06
 Reference value :  7.25141e-06
 Reference value :  7.25198e-06
 Reference value :  7.25258e-06
 Reference value :  7.25322e-06
 Reference value :  7.25406e-06
 Reference value :  7.25466e-06
 Reference value :  7.25536e-06
 Reference value :  7.25619e-06
 Reference value :  7.25703e-06
 Reference value :  7.25811e-06
 Reference value :  7.25993e-06
 Reference value :  7.26184e-06
 Reference value :  7.26472e-06
 Reference value :  7.26855e-06
 Reference value :  7.27621e-06
 Reference value :  7.29153e-06
 Reference value :  7.32106e-06
 Reference value :  7.38012e-06
 Reference value :  7.49825e-06
 Reference value :  7.50000e-06
 Reference value :  7.50001e-06
 Reference value :  7.50003e-06
 Reference value :  7.50007e-06
 Reference value :  7.50010e-06
 Reference value :  7.50010e-06
 Reference value :  7.50011e-06
 Reference value :  7.50013e-06
 Reference value :  7.50016e-06
 Reference value :  7.50023e-06
 Reference value :  7.50036e-06
 Reference value :  7.50054e-06
 Reference value :  7.50090e-06
 Reference value :  7.50141e-06
 Reference value :  7.50193e-06
 Reference value :  7.50246e-06
 Reference value :  7.50308e-06
 Reference value :  7.50376e-06
 Reference value :  7.50456e-06
 Reference value :  7.50541e-06
 Reference value :  7.50631e-06
 Reference value :  7.50757e-06
 Reference value :  7.50906e-06
 Reference value :  7.51041e-06
 Reference value :  7.51180e-06
 Reference value :  7.51308e-06
 Reference value :  7.51448e-06
 Reference value :  7.51597e-06
 Reference value :  7.51767e-06
 Reference value :  7.52081e-06
 Reference value :  7.52534e-06
 Reference value :  7.53429e-06
 Reference value :  7.55095e-06
 Reference value :  7.58238e-06
 Reference value :  7.64522e-06
 Reference value :  7.75010e-06
 Reference value :  7.75011e-06
 Reference value :  7.75013e-06
 Reference value :  7.75017e-06
 Reference value :  7.75020e-06
 Reference value :  7.75020e-06
 Reference value :  7.75020e-06
 Reference value :  7.75021e-06
 Reference value :  7.75021e-06
 Reference value :  7.75022e-06
 Reference value :  7.75025e-06
 Reference value :  7.75029e-06
 Reference value :  7.75039e-06
 Reference value :  7.75058e-06
 Reference value :  7.75092e-06
 Reference value :  7.75141e-06
 Reference value :  7.75198e-06
 Reference value :  7.75258e-06
 Reference value :  7.75322e-06
 Reference value :  7.75406e-06
 Reference value :  7.75467e-06
 Reference value :  7.75537e-06
 Reference value :  7.75603e-06
 Reference value :  7.75675e-06
 Reference value :  7.75766e-06
 Reference value :  7.75867e-06
 Reference value :  7.75970e-06
 Reference value :  7.76119e-06
 Reference value :  7.76287e-06
 Reference value :  7.76517e-06
 Reference value :  7.76804e-06
 Reference value :  7.77231e-06
 Reference value :  7.78086e-06
 Reference value :  7.79794e-06
 Reference value :  7.83212e-06
 Reference value :  7.90046e-06
 Reference value :  8.00000e-06
 Reference value :  8.00001e-06
 Reference value :  8.00003e-06
 Reference value :  8.00007e-06
 Reference value :  8.00010e-06
 Reference value :  8.00010e-06
 Reference value :  8.00011e-06
 Reference value :  8.00013e-06
 Reference value :  8.00016e-06
 Reference value :  8.00023e-06
 Reference value :  8.00036e-06
 Reference value :  8.00054e-06
 Reference value :  8.00090e-06
 Reference value :  8.00141e-06
 Reference value :  8.00193e-06
 Reference value :  8.00248e-06
 Reference value :  8.00314e-06
 Reference value :  8.00383e-06
 Reference value :  8.00461e-06
 Reference value :  8.00525e-06
 Reference value :  8.00594e-06
 Reference value :  8.00661e-06
 Reference value :  8.00738e-06
 Reference value :  8.00810e-06
 Reference value :  8.00920e-06
 Reference value :  8.01025e-06
 Reference value :  8.01192e-06
 Reference value :  8.01319e-06
 Reference value :  8.01454e-06
 Reference value :  8.01598e-06
 Reference value :  8.01753e-06
 Reference value :  8.01923e-06
 Reference value :  8.02139e-06
 Reference value :  8.02434e-06
 Reference value :  8.02709e-06
 Reference value :  8.03120e-06
 Reference value :  8.03669e-06
 Reference value :  8.04289e-06
 Reference value :  8.04735e-06
 Reference value :  8.05224e-06
 Reference value :  8.05808e-06
 Reference value :  8.06387e-06
 Reference value :  8.07092e-06
 Reference value :  8.08502e-06
 Reference value :  8.10419e-06
 Reference value :  8.13718e-06
 Reference value :  8.19100e-06
 Reference value :  8.25010e-06
 Reference value :  8.25011e-06
 Reference value :  8.25013e-06
 Reference value :  8.25017e-06
 Reference value :  8.25020e-06
 Reference value :  8.25020e-06
 Reference value :  8.25020e-06
 Reference value :  8.25021e-06
 Reference value :  8.25021e-06
 Reference value :  8.25022e-06
 Reference value :  8.25025e-06
 Reference value :  8.25029e-06
 Reference value :  8.25039e-06
 Reference value :  8.25058e-06
 Reference value :  8.25096e-06
 Reference value :  8.25143e-06
 Reference value :  8.25198e-06
 Reference value :  8.25258e-06
 Reference value :  8.25322e-06
 Reference value :  8.25404e-06
 Reference value :  8.25495e-06
 Reference value :  8.25612e-06
 Reference value :  8.25752e-06
 Reference value :  8.25885e-06
 Reference value :  8.26110e-06
 Reference value :  8.26351e-06
 Reference value :  8.26729e-06
 Reference value :  8.27291e-06
 Reference value :  8.28415e-06
 Reference value :  8.30664e-06
 Reference value :  8.35162e-06
 Reference value :  8.44157e-06
 Reference value :  8.50000e-06
 Reference value :  8.50000e-06
 Reference value :  8.50000e-06
 Reference value :  8.50000e-06
 Reference value :  8.50000e-06
 Reference value :  8.50000e-06
 Reference value :  8.50000e-06
 Reference value :  8.50000e-06
 Reference value :  8.50000e-06
 Reference value :  8.50001e-06
 Reference value :  8.50001e-06
 Reference value :  8.50002e-06
 Reference value :  8.50004e-06
 Reference value :  8.50008e-06
 Reference value :  8.50010e-06
 Reference value :  8.50010e-06
 Reference value :  8.50011e-06
 Reference value :  8.50012e-06
 Reference value :  8.50014e-06
 Reference value :  8.50018e-06
 Reference value :  8.50026e-06
 Reference value :  8.50043e-06
 Reference value :  8.50072e-06
 Reference value :  8.50121e-06
 Reference value :  8.50181e-06
 Reference value :  8.50247e-06
 Reference value :  8.50311e-06
 Reference value :  8.50379e-06
 Reference value :  8.50448e-06
 Reference value :  8.50521e-06
 Reference value :  8.50619e-06
 Reference value :  8.50721e-06
 Reference value :  8.50925e-06
 Reference value :  8.51054e-06
 Reference value :  8.51189e-06
 Reference value :  8.51348e-06
 Reference value :  8.51523e-06
 Reference value :  8.51762e-06
 Reference value :  8.52125e-06
 Reference value :  8.52564e-06
 Reference value :  8.53041e-06
 Reference value :  8.53371e-06
 Reference value :  8.53653e-06
 Reference value :  8.53916e-06
 Reference value :  8.54137e-06
 Reference value :  8.54344e-06
 Reference value :  8.54555e-06
 Reference value :  8.54799e-06
 Reference value :  8.55288e-06
 Reference value :  8.55838e-06
 Reference value :  8.56654e-06
 Reference value :  8.57625e-06
 Reference value :  8.58970e-06
 Reference value :  8.60439e-06
 Reference value :  8.61879e-06
 Reference value :  8.63788e-06
 Reference value :  8.66395e-06
 Reference value :  8.70539e-06
 Reference value :  8.75010e-06
 Reference value :  8.75011e-06
 Reference value :  8.75013e-06
 Reference value :  8.75017e-06
 Reference value :  8.75020e-06
 Reference value :  8.75020e-06
 Reference value :  8.75020e-06
 Reference value :  8.75021e-06
 Reference value :  8.75021e-06
 Reference value :  8.75022e-06
 Reference value :  8.75025e-06
 Reference value :  8.75029e-06
 Reference value :  8.75039e-06
 Reference value :  8.75057e-06
 Reference value :  8.75094e-06
 Reference value :  8.75141e-06
 Reference value :  8.75198e-06
 Reference value :  8.75258e-06
 Reference value :  8.75323e-06
 Reference value :  8.75405e-06
 Reference value :  8.75469e-06
 Reference value :  8.75543e-06
 Reference value :  8.75619e-06
 Reference value :  8.75698e-06
 Reference value :  8.75812e-06
 Reference value :  8.75961e-06
 Reference value :  8.76163e-06
 Reference value :  8.76427e-06
 Reference value :  8.76819e-06
 Reference value :  8.77575e-06
 Reference value :  8.79085e-06
 Reference value :  8.82064e-06
 Reference value :  8.88008e-06
 Reference value :  8.99884e-06
 Reference value :  9.00000e-06
 Reference value :  9.00001e-06
 Reference value :  9.00003e-06
 Reference value :  9.00007e-06
 Reference value :  9.00010e-06
 Reference value :  9.00010e-06
 Reference value :  9.00011e-06
 Reference value :  9.00013e-06
 Reference value :  9.00016e-06
 Reference value :  9.00023e-06
 Reference value :  9.00036e-06
 Reference value :  9.00055e-06
 Reference value :  9.00092e-06
 Reference value :  9.00145e-06
 Reference value :  9.00198e-06
 Reference value :  9.00255e-06
 Reference value :  9.00322e-06
 Reference value :  9.00397e-06
 Reference value :  9.00467e-06
 Reference value :  9.00550e-06
 Reference value :  9.00638e-06
 Reference value :  9.00744e-06
 Reference value :  9.00896e-06
 Reference value :  9.01080e-06
 Reference value :  9.01260e-06
 Reference value :  9.01459e-06
 Reference value :  9.01629e-06
 Reference value :  9.01807e-06
 Reference value :  9.02027e-06
 Reference value :  9.02266e-06
 Reference value :  9.02701e-06
 Reference value :  9.03359e-06
 Reference value :  9.04481e-06
 Reference value :  9.06673e-06
 Reference value :  9.11058e-06
 Reference value :  9.19397e-06
 Reference value :  9.25010e-06
 Reference value :  9.25011e-06
 Reference value :  9.25013e-06
 Reference value :  9.25017e-06
 Reference value :  9.25020e-06
 Reference value :  9.25020e-06
 Reference value :  9.25020e-06
 Reference value :  9.25021e-06
 Reference value :  9.25021e-06
 Reference value :  9.25022e-06
 Reference value :  9.25025e-06
 Reference value :  9.25029e-06
 Reference value :  9.25039e-06
 Reference value :  9.25057e-06
 Reference value :  9.25094e-06
 Reference value :  9.25142e-06
 Reference value :  9.25198e-06
 Reference value :  9.25259e-06
 Reference value :  9.25324e-06
 Reference value :  9.25411e-06
 Reference value :  9.25473e-06
 Reference value :  9.25545e-06
 Reference value :  9.25612e-06
 Reference value :  9.25686e-06
 Reference value :  9.25779e-06
 Reference value :  9.25884e-06
 Reference value :  9.26092e-06
 Reference value :  9.26308e-06
 Reference value :  9.26682e-06
 Reference value :  9.27156e-06
 Reference value :  9.28102e-06
 Reference value :  9.29995e-06
 Reference value :  9.33780e-06
 Reference value :  9.41351e-06
 Reference value :  9.50000e-06
 Reference value :  9.50001e-06
 Reference value :  9.50003e-06
 Reference value :  9.50007e-06
 Reference value :  9.50010e-06
 Reference value :  9.50010e-06
 Reference value :  9.50011e-06
 Reference value :  9.50013e-06
 Reference value :  9.50016e-06
 Reference value :  9.50023e-06
 Reference value :  9.50036e-06
 Reference value :  9.50055e-06
 Reference value :  9.50092e-06
 Reference value :  9.50145e-06
 Reference value :  9.50198e-06
 Reference value :  9.50255e-06
 Reference value :  9.50322e-06
 Reference value :  9.50397e-06
 Reference value :  9.50472e-06
 Reference value :  9.50541e-06
 Reference value :  9.50613e-06
 Reference value :  9.50694e-06
 Reference value :  9.50770e-06
 Reference value :  9.50853e-06
 Reference value :  9.50971e-06
 Reference value :  9.51103e-06
 Reference value :  9.51330e-06
 Reference value :  9.51572e-06
 Reference value :  9.51764e-06
 Reference value :  9.51939e-06
 Reference value :  9.52065e-06
 Reference value :  9.52203e-06
 Reference value :  9.52360e-06
 Reference value :  9.52513e-06
 Reference value :  9.52697e-06
 Reference value :  9.52971e-06
 Reference value :  9.53253e-06
 Reference value :  9.53818e-06
 Reference value :  9.54301e-06
 Reference value :  9.54763e-06
 Reference value :  9.55224e-06
 Reference value :  9.55577e-06
 Reference value :  9.55999e-06
 Reference value :  9.56304e-06
 Reference value :  9.56648e-06
 Reference value :  9.57118e-06
 Reference value :  9.57597e-06
 Reference value :  9.58260e-06
 Reference value :  9.58887e-06
 Reference value :  9.59557e-06
 Reference value :  9.60280e-06
 Reference value :  9.61728e-06
 Reference value :  9.63605e-06
 Reference value :  9.66689e-06
 Reference value :  9.72399e-06
 Reference value :  9.75010e-06
 Reference value :  9.75011e-06
 Reference value :  9.75013e-06
 Reference value :  9.75017e-06
 Reference value :  9.75020e-06
 Reference value :  9.75020e-06
 Reference value :  9.75020e-06
 Reference value :  9.75021e-06
 Reference value :  9.75021e-06
 Reference value :  9.75022e-06
 Reference value :  9.75025e-06
 Reference value :  9.75029e-06
 Reference value :  9.75039e-06
 Reference value :  9.75058e-06
 Reference value :  9.75091e-06
 Reference value :  9.75141e-06
 Reference value :  9.75204e-06
 Reference value :  9.75262e-06
 Reference value :  9.75330e-06
 Reference value :  9.75414e-06
 Reference value :  9.75473e-06
 Reference value :  9.75541e-06
 Reference value :  9.75625e-06
 Reference value :  9.75724e-06
 Reference value :  9.75823e-06
 Reference value :  9.76021e-06
 Reference value :  9.76213e-06
 Reference value :  9.76531e-06
 Reference value :  9.76917e-06
 Reference value :  9.77690e-06
 Reference value :  9.79236e-06
 Reference value :  9.82328e-06
 Reference value :  9.88512e-06
 Reference value :  1.00000e-05
 Reference value :  1.00000e-05
 Reference value :  1.00000e-05
 Reference value :  1.00001e-05
 Reference value :  1.00001e-05
 Reference value :  1.00001e-05
 Reference value :  1.00001e-05
 Reference value :  1.00001e-05
 Reference value :  1.00002e-05
 Reference value :  1.00002e-05
 Reference value :  1.00004e-05
 Reference value :  1.00005e-05
 Reference value :  1.00009e-05
 Reference value :  1.00014e-05
 Reference value :  1.00019e-05
 Reference value :  1.00024e-05
 Reference value :  1.00030e-05
 Reference value :  1.00037e-05
 Reference value :  1.00046e-05
 Reference value :  1.00054e-05
 Reference value :  1.00063e-05
 Reference value :  1.00076e-05
 Reference value :  1.00090e-05
 Reference value :  1.00104e-05
 Reference value :  1.00118e-05
 Reference value :  1.00131e-05
 Reference value :  1.00146e-05
 Reference value :  1.00160e-05
 Reference value :  1.00176e-05
 Reference value :  1.00209e-05
 Reference value :  1.00264e-05
 Reference value :  1.00372e-05
 Reference value :  1.00588e-05
 Reference value :  1.01021e-05
 Reference value :  1.01886e-05
 Reference value :  1.02501e-05
 Reference value :  1.02501e-05
 Reference value :  1.02501e-05
 Reference value :  1.02502e-05
 Reference value :  1.02502e-05
 Reference value :  1.02502e-05
 Reference value :  1.02502e-05
 Reference value :  1.02502e-05
 Reference value :  1.02502e-05
 Reference value :  1.02502e-05
 Reference value :  1.02502e-05
 Reference value :  1.02503e-05
 Reference value :  1.02504e-05
 Reference value :  1.02506e-05
 Reference value :  1.02509e-05
 Reference value :  1.02514e-05
 Reference value :  1.02520e-05
 Reference value :  1.02526e-05
 Reference value :  1.02532e-05
 Reference value :  1.02541e-05
 Reference value :  1.02547e-05
 Reference value :  1.02554e-05
 Reference value :  1.02561e-05
 Reference value :  1.02568e-05
 Reference value :  1.02577e-05
 Reference value :  1.02587e-05
 Reference value :  1.02597e-05
 Reference value :  1.02612e-05
 Reference value :  1.02629e-05
 Reference value :  1.02651e-05
 Reference value :  1.02680e-05
 Reference value :  1.02722e-05
 Reference value :  1.02807e-05
 Reference value :  1.02964e-05
 Reference value :  1.03277e-05
 Reference value :  1.03905e-05
 Reference value :  1.05000e-05
 Reference value :  1.05000e-05
 Reference value :  1.05000e-05
 Reference value :  1.05001e-05
 Reference value :  1.05001e-05
 Reference value :  1.05001e-05
 Reference value :  1.05001e-05
 Reference value :  1.05001e-05
 Reference value :  1.05002e-05
 Reference value :  1.05002e-05
 Reference value :  1.05004e-05
 Reference value :  1.05005e-05
 Reference value :  1.05009e-05
 Reference value :  1.05014e-05
 Reference value :  1.05019e-05
 Reference value :  1.05024e-05
 Reference value :  1.05031e-05
 Reference value :  1.05037e-05
 Reference value :  1.05045e-05
 Reference value :  1.05052e-05
 Reference value :  1.05058e-05
 Reference value :  1.05065e-05
 Reference value :  1.05072e-05
 Reference value :  1.05080e-05
 Reference value :  1.05089e-05
 Reference value :  1.05099e-05
 Reference value :  1.05115e-05
 Reference value :  1.05138e-05
 Reference value :  1.05153e-05
 Reference value :  1.05171e-05
 Reference value :  1.05187e-05
 Reference value :  1.05200e-05
 Reference value :  1.05211e-05
 Reference value :  1.05222e-05
 Reference value :  1.05235e-05
 Reference value :  1.05250e-05
 Reference value :  1.05264e-05
 Reference value :  1.05290e-05
 Reference value :  1.05320e-05
 Reference value :  1.05380e-05
 Reference value :  1.05491e-05
 Reference value :  1.05669e-05
 Reference value :  1.06020e-05
 Reference value :  1.06452e-05
 Reference value :  1.07019e-05
 Reference value :  1.07501e-05
 Reference value :  1.07501e-05
 Reference value :  1.07501e-05
 Reference value :  1.07502e-05
 Reference value :  1.07502e-05
 Reference value :  1.07502e-05
 Reference value :  1.07502e-05
 Reference value :  1.07502e-05
 Reference value :  1.07502e-05
 Reference value :  1.07502e-05
 Reference value :  1.07502e-05
 Reference value :  1.07503e-05
 Reference value :  1.07504e-05
 Reference value :  1.07506e-05
 Reference value :  1.07509e-05
 Reference value :  1.07514e-05
 Reference value :  1.07520e-05
 Reference value :  1.07526e-05
 Reference value :  1.07532e-05
 Reference value :  1.07541e-05
 Reference value :  1.07547e-05
 Reference value :  1.07554e-05
 Reference value :  1.07562e-05
 Reference value :  1.07570e-05
 Reference value :  1.07581e-05
 Reference value :  1.07598e-05
 Reference value :  1.07617e-05
 Reference value :  1.07645e-05
 Reference value :  1.07684e-05
 Reference value :  1.07761e-05
 Reference value :  1.07916e-05
 Reference value :  1.08218e-05
 Reference value :  1.08822e-05
 Reference value :  1.09393e-05
 Reference value :  1.10000e-05
 Reference value :  1.10000e-05
 Reference value :  1.10000e-05
 Reference value :  1.10001e-05
 Reference value :  1.10001e-05
 Reference value :  1.10001e-05
 Reference value :  1.10001e-05
 Reference value :  1.10001e-05
 Reference value :  1.10002e-05
 Reference value :  1.10002e-05
 Reference value :  1.10004e-05
 Reference value :  1.10005e-05
 Reference value :  1.10009e-05
 Reference value :  1.10014e-05
 Reference value :  1.10019e-05
 Reference value :  1.10024e-05
 Reference value :  1.10030e-05
 Reference value :  1.10037e-05
 Reference value :  1.10045e-05
 Reference value :  1.10053e-05
 Reference value :  1.10063e-05
 Reference value :  1.10076e-05
 Reference value :  1.10090e-05
 Reference value :  1.10104e-05
 Reference value :  1.10118e-05
 Reference value :  1.10131e-05
 Reference value :  1.10145e-05
 Reference value :  1.10159e-05
 Reference value :  1.10175e-05
 Reference value :  1.10208e-05
 Reference value :  1.10259e-05
 Reference value :  1.10360e-05
 Reference value :  1.10563e-05
 Reference value :  1.10969e-05
 Reference value :  1.11781e-05
 Reference value :  1.12501e-05
 Reference value :  1.12501e-05
 Reference value :  1.12501e-05
 Reference value :  1.12502e-05
 Reference value :  1.12502e-05
 Reference value :  1.12502e-05
 Reference value :  1.12502e-05
 Reference value :  1.12502e-05
 Reference value :  1.12502e-05
 Reference value :  1.12502e-05
 Reference value :  1.12502e-05
 Reference value :  1.12503e-05
 Reference value :  1.12504e-05
 Reference value :  1.12506e-05
 Reference value :  1.12509e-05
 Reference value :  1.12514e-05
 Reference value :  1.12520e-05
 Reference value :  1.12526e-05
 Reference value :  1.12532e-05
 Reference value :  1.12541e-05
 Reference value :  1.12547e-05
 Reference value :  1.12554e-05
 Reference value :  1.12561e-05
 Reference value :  1.12568e-05
 Reference value :  1.12577e-05
 Reference value :  1.12587e-05
 Reference value :  1.12597e-05
 Reference value :  1.12612e-05
 Reference value :  1.12628e-05
 Reference value :  1.12651e-05
 Reference value :  1.12680e-05
 Reference value :  1.12722e-05
 Reference value :  1.12806e-05
 Reference value :  1.12967e-05
 Reference value :  1.13288e-05
 Reference value :  1.13932e-05
 Reference value :  1.15000e-05
 Reference value :  1.15000e-05
 Reference value :  1.15000e-05
 Reference value :  1.15001e-05
 Reference value :  1.15001e-05
 Reference value :  1.15001e-05
 Reference value :  1.15001e-05
 Reference value :  1.15001e-05
 Reference value :  1.15002e-05
 Reference value :  1.15002e-05
 Reference value :  1.15004e-05
 Reference value :  1.15005e-05
 Reference value :  1.15009e-05
 Reference value :  1.15014e-05
 Reference value :  1.15019e-05
 Reference value :  1.15024e-05
 Reference value :  1.15031e-05
 Reference value :  1.15037e-05
 Reference value :  1.15045e-05
 Reference value :  1.15051e-05
 Reference value :  1.15058e-05
 Reference value :  1.15065e-05
 Reference value :  1.15072e-05
 Reference value :  1.15080e-05
 Reference value :  1.15089e-05
 Reference value :  1.15099e-05
 Reference value :  1.15116e-05
 Reference value :  1.15132e-05
 Reference value :  1.15146e-05
 Reference value :  1.15161e-05
 Reference value :  1.15177e-05
 Reference value :  1.15189e-05
 Reference value :  1.15201e-05
 Reference value :  1.15215e-05
 Reference value :  1.15229e-05
 Reference value :  1.15242e-05
 Reference value :  1.15259e-05
 Reference value :  1.15281e-05
 Reference value :  1.15304e-05
 Reference value :  1.15344e-05
 Reference value :  1.15401e-05
 Reference value :  1.15493e-05
 Reference value :  1.15646e-05
 Reference value :  1.15885e-05
 Reference value :  1.16266e-05
 Reference value :  1.16539e-05
 Reference value :  1.16839e-05
 Reference value :  1.17060e-05
 Reference value :  1.17224e-05
 Reference value :  1.17411e-05
 Reference value :  1.17501e-05
 Reference value :  1.17501e-05
 Reference value :  1.17501e-05
 Reference value :  1.17502e-05
 Reference value :  1.17502e-05
 Reference value :  1.17502e-05
 Reference value :  1.17502e-05
 Reference value :  1.17502e-05
 Reference value :  1.17502e-05
 Reference value :  1.17502e-05
 Reference value :  1.17502e-05
 Reference value :  1.17503e-05
 Reference value :  1.17504e-05
 Reference value :  1.17506e-05
 Reference value :  1.17509e-05
 Reference value :  1.17514e-05
 Reference value :  1.17520e-05
 Reference value :  1.17526e-05
 Reference value :  1.17533e-05
 Reference value :  1.17541e-05
 Reference value :  1.17547e-05
 Reference value :  1.17554e-05
 Reference value :  1.17563e-05
 Reference value :  1.17572e-05
 Reference value :  1.17582e-05
 Reference value :  1.17601e-05
 Reference value :  1.17620e-05
 Reference value :  1.17651e-05
 Reference value :  1.17690e-05
 Reference value :  1.17767e-05
 Reference value :  1.17922e-05
 Reference value :  1.18232e-05
 Reference value :  1.18851e-05
 Reference value :  1.20000e-05
 Reference value :  1.20000e-05
 Reference value :  1.20000e-05
 Reference value :  1.20001e-05
 Reference value :  1.20001e-05
 Reference value :  1.20001e-05
 Reference value :  1.20001e-05
 Reference value :  1.20001e-05
 Reference value :  1.20002e-05
 Reference value :  1.20002e-05
 Reference value :  1.20004e-05
 Reference value :  1.20005e-05
 Reference value :  1.20009e-05
 Reference value :  1.20014e-05
 Reference value :  1.20019e-05
 Reference value :  1.20024e-05
 Reference value :  1.20030e-05
 Reference value :  1.20037e-05
 Reference value :  1.20046e-05
 Reference value :  1.20053e-05
 Reference value :  1.20063e-05
 Reference value :  1.20074e-05
 Reference value :  1.20087e-05
 Reference value :  1.20099e-05
 Reference value :  1.20111e-05
 Reference value :  1.20125e-05
 Reference value :  1.20141e-05
 Reference value :  1.20157e-05
 Reference value :  1.20176e-05
 Reference value :  1.20210e-05
 Reference value :  1.20260e-05
 Reference value :  1.20356e-05
 Reference value :  1.20537e-05
 Reference value :  1.20871e-05
 Reference value :  1.21539e-05
 Reference value :  1.22501e-05
 Reference value :  1.22501e-05
 Reference value :  1.22501e-05
 Reference value :  1.22502e-05
 Reference value :  1.22502e-05
 Reference value :  1.22502e-05
 Reference value :  1.22502e-05
 Reference value :  1.22502e-05
 Reference value :  1.22502e-05
 Reference value :  1.22502e-05
 Reference value :  1.22502e-05
 Reference value :  1.22503e-05
 Reference value :  1.22504e-05
 Reference value :  1.22506e-05
 Reference value :  1.22509e-05
 Reference value :  1.22514e-05
 Reference value :  1.22520e-05
 Reference value :  1.22526e-05
 Reference value :  1.22532e-05
 Reference value :  1.22541e-05
 Reference value :  1.22547e-05
 Reference value :  1.22554e-05
 Reference value :  1.22561e-05
 Reference value :  1.22568e-05
 Reference value :  1.22577e-05
 Reference value :  1.22587e-05
 Reference value :  1.22597e-05
 Reference value :  1.22612e-05
 Reference value :  1.22629e-05
 Reference value :  1.22651e-05
 Reference value :  1.22680e-05
 Reference value :  1.22722e-05
 Reference value :  1.22807e-05
 Reference value :  1.22972e-05
 Reference value :  1.23302e-05
 Reference value :  1.23964e-05
 Reference value :  1.25000e-05
 Reference value :  1.25000e-05
 Reference value :  1.25000e-05
 Reference value :  1.25001e-05
 Reference value :  1.25001e-05
 Reference value :  1.25001e-05
 Reference value :  1.25001e-05
 Reference value :  1.25001e-05
 Reference value :  1.25002e-05
 Reference value :  1.25002e-05
 Reference value :  1.25004e-05
 Reference value :  1.25005e-05
 Reference value :  1.25009e-05
 Reference value :  1.25014e-05
 Reference value :  1.25019e-05
 Reference value :  1.25024e-05
 Reference value :  1.25031e-05
 Reference value :  1.25037e-05
 Reference value :  1.25045e-05
 Reference value :  1.25051e-05
 Reference value :  1.25058e-05
 Reference value :  1.25065e-05
 Reference value :  1.25072e-05
 Reference value :  1.25079e-05
 Reference value :  1.25089e-05
 Reference value :  1.25099e-05
 Reference value :  1.25113e-05
 Reference value :  1.25125e-05
 Reference value :  1.25138e-05
 Reference value :  1.25151e-05
 Reference value :  1.25166e-05
 Reference value :  1.25180e-05
 Reference value :  1.25189e-05
 Reference value :  1.25200e-05
 Reference value :  1.25213e-05
 Reference value :  1.25225e-05
 Reference value :  1.25237e-05
 Reference value :  1.25252e-05
 Reference value :  1.25272e-05
 Reference value :  1.25293e-05
 Reference value :  1.25328e-05
 Reference value :  1.25385e-05
 Reference value :  1.25469e-05
 Reference value :  1.25558e-05
 Reference value :  1.25640e-05
 Reference value :  1.25703e-05
 Reference value :  1.25761e-05
 Reference value :  1.25796e-05
 Reference value :  1.25841e-05
 Reference value :  1.25928e-05
 Reference value :  1.26013e-05
 Reference value :  1.26172e-05
 Reference value :  1.26332e-05
 Reference value :  1.26649e-05
 Reference value :  1.26959e-05
 Reference value :  1.27501e-05
 Reference value :  1.27501e-05
 Reference value :  1.27501e-05
 Reference value :  1.27502e-05
 Reference value :  1.27502e-05
 Reference value :  1.27502e-05
 Reference value :  1.27502e-05
 Reference value :  1.27502e-05
 Reference value :  1.27502e-05
 Reference value :  1.27502e-05
 Reference value :  1.27502e-05
 Reference value :  1.27503e-05
 Reference value :  1.27504e-05
 Reference value :  1.27506e-05
 Reference value :  1.27509e-05
 Reference value :  1.27514e-05
 Reference value :  1.27520e-05
 Reference value :  1.27526e-05
 Reference value :  1.27533e-05
 Reference value :  1.27541e-05
 Reference value :  1.27547e-05
 Reference value :  1.27555e-05
 Reference value :  1.27563e-05
 Reference value :  1.27572e-05
 Reference value :  1.27583e-05
 Reference value :  1.27602e-05
 Reference value :  1.27621e-05
 Reference value :  1.27653e-05
 Reference value :  1.27692e-05
 Reference value :  1.27770e-05
 Reference value :  1.27927e-05
 Reference value :  1.28240e-05
 Reference value :  1.28866e-05
 Reference value :  1.30000e-05
 Reference value :  1.30000e-05
 Reference value :  1.30000e-05
 Reference value :  1.30001e-05
 Reference value :  1.30001e-05
 Reference value :  1.30001e-05
 Reference value :  1.30001e-05
 Reference value :  1.30001e-05
 Reference value :  1.30002e-05
 Reference value :  1.30002e-05
 Reference value :  1.30004e-05
 Reference value :  1.30005e-05
 Reference value :  1.30009e-05
 Reference value :  1.30014e-05
 Reference value :  1.30019e-05
 Reference value :  1.30024e-05
 Reference value :  1.30031e-05
 Reference value :  1.30038e-05
 Reference value :  1.30045e-05
 Reference value :  1.30054e-05
 Reference value :  1.30062e-05
 Reference value :  1.30073e-05
 Reference value :  1.30087e-05
 Reference value :  1.30100e-05
 Reference value :  1.30112e-05
 Reference value :  1.30124e-05
 Reference value :  1.30137e-05
 Reference value :  1.30151e-05
 Reference value :  1.30166e-05
 Reference value :  1.30197e-05
 Reference value :  1.30252e-05
 Reference value :  1.30363e-05
 Reference value :  1.30586e-05
 Reference value :  1.31030e-05
 Reference value :  1.31920e-05
 Reference value :  1.32501e-05
 Reference value :  1.32501e-05
 Reference value :  1.32501e-05
 Reference value :  1.32502e-05
 Reference value :  1.32502e-05
 Reference value :  1.32502e-05
 Reference value :  1.32502e-05
 Reference value :  1.32502e-05
 Reference value :  1.32502e-05
 Reference value :  1.32502e-05
 Reference value :  1.32502e-05
 Reference value :  1.32503e-05
 Reference value :  1.32504e-05
 Reference value :  1.32506e-05
 Reference value :  1.32509e-05
 Reference value :  1.32514e-05
 Reference value :  1.32520e-05
 Reference value :  1.32526e-05
 Reference value :  1.32533e-05
 Reference value :  1.32541e-05
 Reference value :  1.32547e-05
 Reference value :  1.32554e-05
 Reference value :  1.32561e-05
 Reference value :  1.32569e-05
 Reference value :  1.32578e-05
 Reference value :  1.32589e-05
 Reference value :  1.32610e-05
 Reference value :  1.32631e-05
 Reference value :  1.32669e-05
 Reference value :  1.32718e-05
 Reference value :  1.32815e-05
 Reference value :  1.33008e-05
 Reference value :  1.33396e-05
 Reference value :  1.34172e-05
 Reference value :  1.35000e-05
 Reference value :  1.35000e-05
 Reference value :  1.35000e-05
 Reference value :  1.35001e-05
 Reference value :  1.35001e-05
 Reference value :  1.35001e-05
 Reference value :  1.35001e-05
 Reference value :  1.35001e-05
 Reference value :  1.35002e-05
 Reference value :  1.35002e-05
 Reference value :  1.35004e-05
 Reference value :  1.35005e-05
 Reference value :  1.35009e-05
 Reference value :  1.35014e-05
 Reference value :  1.35019e-05
 Reference value :  1.35024e-05
 Reference value :  1.35031e-05
 Reference value :  1.35037e-05
 Reference value :  1.35045e-05
 Reference value :  1.35052e-05
 Reference value :  1.35059e-05
 Reference value :  1.35068e-05
 Reference value :  1.35076e-05
 Reference value :  1.35084e-05
 Reference value :  1.35096e-05
 Reference value :  1.35108e-05
 Reference value :  1.35129e-05
 Reference value :  1.35155e-05
 Reference value :  1.35175e-05
 Reference value :  1.35191e-05
 Reference value :  1.35207e-05
 Reference value :  1.35224e-05
 Reference value :  1.35240e-05
 Reference value :  1.35258e-05
 Reference value :  1.35278e-05
 Reference value :  1.35306e-05
 Reference value :  1.35342e-05
 Reference value :  1.35394e-05
 Reference value :  1.35442e-05
 Reference value :  1.35501e-05
 Reference value :  1.35575e-05
 Reference value :  1.35623e-05
 Reference value :  1.35675e-05
 Reference value :  1.35740e-05
 Reference value :  1.35816e-05
 Reference value :  1.35888e-05
 Reference value :  1.35968e-05
 Reference value :  1.36051e-05
 Reference value :  1.36199e-05
 Reference value :  1.36386e-05
 Reference value :  1.36683e-05
 Reference value :  1.37160e-05
 Reference value :  1.37501e-05
 Reference value :  1.37501e-05
 Reference value :  1.37501e-05
 Reference value :  1.37502e-05
 Reference value :  1.37502e-05
 Reference value :  1.37502e-05
 Reference value :  1.37502e-05
 Reference value :  1.37502e-05
 Reference value :  1.37502e-05
 Reference value :  1.37502e-05
 Reference value :  1.37502e-05
 Reference value :  1.37503e-05
 Reference value :  1.37504e-05
 Reference value :  1.37506e-05
 Reference value :  1.37509e-05
 Reference value :  1.37514e-05
 Reference value :  1.37520e-05
 Reference value :  1.37526e-05
 Reference value :  1.37533e-05
 Reference value :  1.37541e-05
 Reference value :  1.37547e-05
 Reference value :  1.37554e-05
 Reference value :  1.37562e-05
 Reference value :  1.37572e-05
 Reference value :  1.37582e-05
 Reference value :  1.37602e-05
 Reference value :  1.37621e-05
 Reference value :  1.37653e-05
 Reference value :  1.37692e-05
 Reference value :  1.37769e-05
 Reference value :  1.37923e-05
 Reference value :  1.38233e-05
 Reference value :  1.38851e-05
 Reference value :  1.40000e-05
 Reference value :  1.40000e-05
 Reference value :  1.40000e-05
 Reference value :  1.40001e-05
 Reference value :  1.40001e-05
 Reference value :  1.40001e-05
 Reference value :  1.40001e-05
 Reference value :  1.40001e-05
 Reference value :  1.40002e-05
 Reference value :  1.40002e-05
 Reference value :  1.40004e-05
 Reference value :  1.40005e-05
 Reference value :  1.40009e-05
 Reference value :  1.40014e-05
 Reference value :  1.40019e-05
 Reference value :  1.40024e-05
 Reference value :  1.40030e-05
 Reference value :  1.40037e-05
 Reference value :  1.40046e-05
 Reference value :  1.40054e-05
 Reference value :  1.40063e-05
 Reference value :  1.40076e-05
 Reference value :  1.40088e-05
 Reference value :  1.40102e-05
 Reference value :  1.40115e-05
 Reference value :  1.40128e-05
 Reference value :  1.40142e-05
 Reference value :  1.40157e-05
 Reference value :  1.40174e-05
 Reference value :  1.40205e-05
 Reference value :  1.40251e-05
 Reference value :  1.40337e-05
 Reference value :  1.40496e-05
 Reference value :  1.40791e-05
 Reference value :  1.41377e-05
 Reference value :  1.42501e-05
 Reference value :  1.42501e-05
 Reference value :  1.42501e-05
 Reference value :  1.42502e-05
 Reference value :  1.42502e-05
 Reference value :  1.42502e-05
 Reference value :  1.42502e-05
 Reference value :  1.42502e-05
 Reference value :  1.42502e-05
 Reference value :  1.42502e-05
 Reference value :  1.42502e-05
 Reference value :  1.42503e-05
 Reference value :  1.42504e-05
 Reference value :  1.42506e-05
 Reference value :  1.42509e-05
 Reference value :  1.42514e-05
 Reference value :  1.42520e-05
 Reference value :  1.42526e-05
 Reference value :  1.42533e-05
 Reference value :  1.42541e-05
 Reference value :  1.42547e-05
 Reference value :  1.42554e-05
 Reference value :  1.42561e-05
 Reference value :  1.42569e-05
 Reference value :  1.42578e-05
 Reference value :  1.42589e-05
 Reference value :  1.42600e-05
 Reference value :  1.42615e-05
 Reference value :  1.42634e-05
 Reference value :  1.42655e-05
 Reference value :  1.42689e-05
 Reference value :  1.42734e-05
 Reference value :  1.42823e-05
 Reference value :  1.43000e-05
 Reference value :  1.43356e-05
 Reference value :  1.44067e-05
 Reference value :  1.45000e-05
 Reference value :  1.45000e-05
 Reference value :  1.45000e-05
 Reference value :  1.45001e-05
 Reference value :  1.45001e-05
 Reference value :  1.45001e-05
 Reference value :  1.45001e-05
 Reference value :  1.45001e-05
 Reference value :  1.45002e-05
 Reference value :  1.45002e-05
 Reference value :  1.45004e-05
 Reference value :  1.45005e-05
 Reference value :  1.45009e-05
 Reference value :  1.45014e-05
 Reference value :  1.45019e-05
 Reference value :  1.45024e-05
 Reference value :  1.45031e-05
 Reference value :  1.45037e-05
 Reference value :  1.45045e-05
 Reference value :  1.45051e-05
 Reference value :  1.45058e-05
 Reference value :  1.45065e-05
 Reference value :  1.45073e-05
 Reference value :  1.45080e-05
 Reference value :  1.45091e-05
 Reference value :  1.45101e-05
 Reference value :  1.45120e-05
 Reference value :  1.45133e-05
 Reference value :  1.45147e-05
 Reference value :  1.45160e-05
 Reference value :  1.45175e-05
 Reference value :  1.45191e-05
 Reference value :  1.45205e-05
 Reference value :  1.45221e-05
 Reference value :  1.45237e-05
 Reference value :  1.45253e-05
 Reference value :  1.45272e-05
 Reference value :  1.45300e-05
 Reference value :  1.45330e-05
 Reference value :  1.45388e-05
 Reference value :  1.45475e-05
 Reference value :  1.45561e-05
 Reference value :  1.45660e-05
 Reference value :  1.45806e-05
 Reference value :  1.46098e-05
 Reference value :  1.46421e-05
 Reference value :  1.47042e-05
 Reference value :  1.47501e-05
 Reference value :  1.47501e-05
 Reference value :  1.47501e-05
 Reference value :  1.47502e-05
 Reference value :  1.47502e-05
 Reference value :  1.47502e-05
 Reference value :  1.47502e-05
 Reference value :  1.47502e-05
 Reference value :  1.47502e-05
 Reference value :  1.47502e-05
 Reference value :  1.47502e-05
 Reference value :  1.47503e-05
 Reference value :  1.47504e-05
 Reference value :  1.47506e-05
 Reference value :  1.47509e-05
 Reference value :  1.47514e-05
 Reference value :  1.47520e-05
 Reference value :  1.47526e-05
 Reference value :  1.47533e-05
 Reference value :  1.47541e-05
 Reference value :  1.47547e-05
 Reference value :  1.47554e-05
 Reference value :  1.47563e-05
 Reference value :  1.47572e-05
 Reference value :  1.47582e-05
 Reference value :  1.47603e-05
 Reference value :  1.47622e-05
 Reference value :  1.47654e-05
 Reference value :  1.47693e-05
 Reference value :  1.47770e-05
 Reference value :  1.47925e-05
 Reference value :  1.48234e-05
 Reference value :  1.48852e-05
 Reference value :  1.50000e-05
 Reference value :  1.50000e-05
 Reference value :  1.50000e-05
 Reference value :  1.50001e-05
 Reference value :  1.50001e-05
 Reference value :  1.50001e-05
 Reference value :  1.50001e-05
 Reference value :  1.50001e-05
 Reference value :  1.50002e-05
 Reference value :  1.50002e-05
 Reference value :  1.50004e-05
 Reference value :  1.50005e-05
 Reference value :  1.50009e-05
 Reference value :  1.50014e-05
 Reference value :  1.50019e-05
 Reference value :  1.50024e-05
 Reference value :  1.50030e-05
 Reference value :  1.50037e-05
 Reference value :  1.50046e-05
 Reference value :  1.50054e-05
 Reference value :  1.50063e-05
 Reference value :  1.50074e-05
 Reference value :  1.50087e-05
 Reference value :  1.50099e-05
 Reference value :  1.50111e-05
 Reference value :  1.50122e-05
 Reference value :  1.50135e-05
 Reference value :  1.50148e-05
 Reference value :  1.50163e-05
 Reference value :  1.50193e-05
 Reference value :  1.50252e-05
 Reference value :  1.50356e-05
 Reference value :  1.50563e-05
 Reference value :  1.50977e-05
 Reference value :  1.51806e-05
 Reference value :  1.52501e-05
 Reference value :  1.52501e-05
 Reference value :  1.52501e-05
 Reference value :  1.52502e-05
 Reference value :  1.52502e-05
 Reference value :  1.52502e-05
 Reference value :  1.52502e-05
 Reference value :  1.52502e-05
 Reference value :  1.52502e-05
 Reference value :  1.52502e-05
 Reference value :  1.52502e-05
 Reference value :  1.52503e-05
 Reference value :  1.52504e-05
 Reference value :  1.52506e-05
 Reference value :  1.52509e-05
 Reference value :  1.52514e-05
 Reference value :  1.52520e-05
 Reference value :  1.52526e-05
 Reference value :  1.52533e-05
 Reference value :  1.52541e-05
 Reference value :  1.52548e-05
 Reference value :  1.52555e-05
 Reference value :  1.52561e-05
 Reference value :  1.52569e-05
 Reference value :  1.52579e-05
 Reference value :  1.52589e-05
 Reference value :  1.52600e-05
 Reference value :  1.52615e-05
 Reference value :  1.52636e-05
 Reference value :  1.52656e-05
 Reference value :  1.52692e-05
 Reference value :  1.52738e-05
 Reference value :  1.52828e-05
 Reference value :  1.53010e-05
 Reference value :  1.53373e-05
 Reference value :  1.54098e-05
 Reference value :  1.55000e-05
 Reference value :  1.55013e-05
 Reference value :  1.55038e-05
 Reference value :  1.55052e-05
 Reference value :  1.55065e-05
 Reference value :  1.55077e-05
 Reference value :  1.55089e-05
 Reference value :  1.55102e-05
 Reference value :  1.55114e-05
 Reference value :  1.55132e-05
 Reference value :  1.55148e-05
 Reference value :  1.55163e-05
 Reference value :  1.55181e-05
 Reference value :  1.55197e-05
 Reference value :  1.55209e-05
 Reference value :  1.55222e-05
 Reference value :  1.55234e-05
 Reference value :  1.55247e-05
 Reference value :  1.55262e-05
 Reference value :  1.55283e-05
 Reference value :  1.55304e-05
 Reference value :  1.55340e-05
 Reference value :  1.55397e-05
 Reference value :  1.55462e-05
 Reference value :  1.55556e-05
 Reference value :  1.55744e-05
 Reference value :  1.56007e-05
 Reference value :  1.56411e-05
 Reference value :  1.56735e-05
 Reference value :  1.56957e-05
 Reference value :  1.57211e-05
 Reference value :  1.57501e-05
 Reference value :  1.57501e-05
 Reference value :  1.57501e-05
 Reference value :  1.57502e-05
 Reference value :  1.57502e-05
 Reference value :  1.57502e-05
 Reference value :  1.57502e-05
 Reference value :  1.57502e-05
 Reference value :  1.57502e-05
 Reference value :  1.57502e-05
 Reference value :  1.57502e-05
 Reference value :  1.57503e-05
 Reference value :  1.57504e-05
 Reference value :  1.57506e-05
 Reference value :  1.57509e-05
 Reference value :  1.57514e-05
 Reference value :  1.57520e-05
 Reference value :  1.57526e-05
 Reference value :  1.57532e-05
 Reference value :  1.57541e-05
 Reference value :  1.57547e-05
 Reference value :  1.57554e-05
 Reference value :  1.57563e-05
 Reference value :  1.57572e-05
 Reference value :  1.57583e-05
 Reference value :  1.57602e-05
 Reference value :  1.57621e-05
 Reference value :  1.57653e-05
 Reference value :  1.57692e-05
 Reference value :  1.57770e-05
 Reference value :  1.57927e-05
 Reference value :  1.58221e-05
 Reference value :  1.58810e-05
 Reference value :  1.59987e-05
 Reference value :  1.60000e-05
 Reference value :  1.60000e-05
 Reference value :  1.60000e-05
[...]
 Reference value :  1.74251e-04
 Reference value :  1.74251e-04
 Reference value :  1.74252e-04
 Reference value :  1.74253e-04
 Reference value :  1.74253e-04
 Reference value :  1.74254e-04
 Reference value :  1.74255e-04
 Reference value :  1.74255e-04
 Reference value :  1.74256e-04
 Reference value :  1.74257e-04
 Reference value :  1.74258e-04
 Reference value :  1.74260e-04
 Reference value :  1.74262e-04
 Reference value :  1.74265e-04
 Reference value :  1.74269e-04
 Reference value :  1.74277e-04
 Reference value :  1.74293e-04
 Reference value :  1.74324e-04
 Reference value :  1.74387e-04
 Reference value :  1.74500e-04
 Reference value :  1.74500e-04
 Reference value :  1.74500e-04
 Reference value :  1.74500e-04
 Reference value :  1.74500e-04
 Reference value :  1.74500e-04
 Reference value :  1.74500e-04
 Reference value :  1.74500e-04
 Reference value :  1.74500e-04
 Reference value :  1.74500e-04
 Reference value :  1.74500e-04
 Reference value :  1.74501e-04
 Reference value :  1.74501e-04
 Reference value :  1.74501e-04
 Reference value :  1.74502e-04
 Reference value :  1.74502e-04
 Reference value :  1.74503e-04
 Reference value :  1.74504e-04
 Reference value :  1.74505e-04
 Reference value :  1.74505e-04
 Reference value :  1.74506e-04
 Reference value :  1.74507e-04
 Reference value :  1.74509e-04
 Reference value :  1.74510e-04
 Reference value :  1.74511e-04
 Reference value :  1.74512e-04
 Reference value :  1.74514e-04
 Reference value :  1.74515e-04
 Reference value :  1.74517e-04
 Reference value :  1.74520e-04
 Reference value :  1.74525e-04
 Reference value :  1.74536e-04
 Reference value :  1.74559e-04
 Reference value :  1.74603e-04
 Reference value :  1.74692e-04
 Reference value :  1.74750e-04
 Reference value :  1.74750e-04
 Reference value :  1.74750e-04
 Reference value :  1.74750e-04
 Reference value :  1.74750e-04
 Reference value :  1.74750e-04
 Reference value :  1.74750e-04
 Reference value :  1.74750e-04
 Reference value :  1.74750e-04
 Reference value :  1.74750e-04
 Reference value :  1.74750e-04
 Reference value :  1.74750e-04
 Reference value :  1.74750e-04
 Reference value :  1.74751e-04
 Reference value :  1.74751e-04
 Reference value :  1.74751e-04
 Reference value :  1.74752e-04
 Reference value :  1.74753e-04
 Reference value :  1.74753e-04
 Reference value :  1.74754e-04
 Reference value :  1.74755e-04
 Reference value :  1.74755e-04
 Reference value :  1.74756e-04
 Reference value :  1.74757e-04
 Reference value :  1.74758e-04
 Reference value :  1.74759e-04
 Reference value :  1.74761e-04
 Reference value :  1.74763e-04
 Reference value :  1.74767e-04
 Reference value :  1.74772e-04
 Reference value :  1.74781e-04
 Reference value :  1.74801e-04
 Reference value :  1.74840e-04
 Reference value :  1.74917e-04
 Reference value :  1.75000e-04
 Reference value :  1.75000e-04
 Reference value :  1.75000e-04
 Reference value :  1.75000e-04
 Reference value :  1.75000e-04
 Reference value :  1.75000e-04
 Reference value :  1.75000e-04
 Reference value :  1.75000e-04
 Reference value :  1.75000e-04
 Reference value :  1.75000e-04
 Reference value :  1.75000e-04
 Reference value :  1.75001e-04
 Reference value :  1.75001e-04
 Reference value :  1.75001e-04
 Reference value :  1.75002e-04
 Reference value :  1.75002e-04
 Reference value :  1.75003e-04
 Reference value :  1.75004e-04
 Reference value :  1.75005e-04
 Reference value :  1.75005e-04
 Reference value :  1.75006e-04
 Reference value :  1.75007e-04
 Reference value :  1.75008e-04
 Reference value :  1.75008e-04
 Reference value :  1.75010e-04
 Reference value :  1.75011e-04
 Reference value :  1.75013e-04
 Reference value :  1.75016e-04
 Reference value :  1.75017e-04
 Reference value :  1.75019e-04
 Reference value :  1.75021e-04
 Reference value :  1.75022e-04
 Reference value :  1.75024e-04
 Reference value :  1.75026e-04
 Reference value :  1.75028e-04
 Reference value :  1.75031e-04
 Reference value :  1.75034e-04
 Reference value :  1.75042e-04
 Reference value :  1.75053e-04
 Reference value :  1.75069e-04
 Reference value :  1.75083e-04
 Reference value :  1.75095e-04
 Reference value :  1.75106e-04
 Reference value :  1.75118e-04
 Reference value :  1.75126e-04
 Reference value :  1.75134e-04
 Reference value :  1.75143e-04
 Reference value :  1.75153e-04
 Reference value :  1.75163e-04
 Reference value :  1.75176e-04
 Reference value :  1.75201e-04
 Reference value :  1.75236e-04
 Reference value :  1.75250e-04
 Reference value :  1.75250e-04
 Reference value :  1.75250e-04
 Reference value :  1.75250e-04
 Reference value :  1.75250e-04
 Reference value :  1.75250e-04
 Reference value :  1.75250e-04
 Reference value :  1.75250e-04
 Reference value :  1.75250e-04
 Reference value :  1.75250e-04
 Reference value :  1.75250e-04
 Reference value :  1.75250e-04
 Reference value :  1.75250e-04
 Reference value :  1.75251e-04
 Reference value :  1.75251e-04
 Reference value :  1.75251e-04
 Reference value :  1.75252e-04
 Reference value :  1.75253e-04
 Reference value :  1.75253e-04
 Reference value :  1.75254e-04
 Reference value :  1.75255e-04
 Reference value :  1.75255e-04
 Reference value :  1.75256e-04
 Reference value :  1.75257e-04
 Reference value :  1.75258e-04
 Reference value :  1.75260e-04
 Reference value :  1.75262e-04
 Reference value :  1.75265e-04
 Reference value :  1.75269e-04
 Reference value :  1.75277e-04
 Reference value :  1.75293e-04
 Reference value :  1.75325e-04
 Reference value :  1.75389e-04
 Reference value :  1.75500e-04
 Reference value :  1.75500e-04
 Reference value :  1.75500e-04
 Reference value :  1.75500e-04
 Reference value :  1.75500e-04
 Reference value :  1.75500e-04
 Reference value :  1.75500e-04
 Reference value :  1.75500e-04
 Reference value :  1.75500e-04
 Reference value :  1.75500e-04
 Reference value :  1.75500e-04
 Reference value :  1.75501e-04
 Reference value :  1.75501e-04
 Reference value :  1.75501e-04
 Reference value :  1.75502e-04
 Reference value :  1.75502e-04
 Reference value :  1.75503e-04
 Reference value :  1.75504e-04
 Reference value :  1.75505e-04
 Reference value :  1.75505e-04
 Reference value :  1.75506e-04
 Reference value :  1.75508e-04
 Reference value :  1.75509e-04
 Reference value :  1.75510e-04
 Reference value :  1.75512e-04
 Reference value :  1.75513e-04
 Reference value :  1.75514e-04
 Reference value :  1.75516e-04
 Reference value :  1.75518e-04
 Reference value :  1.75521e-04
 Reference value :  1.75525e-04
 Reference value :  1.75533e-04
 Reference value :  1.75547e-04
 Reference value :  1.75574e-04
 Reference value :  1.75625e-04
 Reference value :  1.75726e-04
 Reference value :  1.75750e-04
 Reference value :  1.75750e-04
 Reference value :  1.75750e-04
 Reference value :  1.75750e-04
 Reference value :  1.75750e-04
 Reference value :  1.75750e-04
 Reference value :  1.75750e-04
 Reference value :  1.75750e-04
 Reference value :  1.75750e-04
 Reference value :  1.75750e-04
 Reference value :  1.75750e-04
 Reference value :  1.75750e-04
 Reference value :  1.75750e-04
 Reference value :  1.75751e-04
 Reference value :  1.75751e-04
 Reference value :  1.75751e-04
 Reference value :  1.75752e-04
 Reference value :  1.75753e-04
 Reference value :  1.75753e-04
 Reference value :  1.75754e-04
 Reference value :  1.75755e-04
 Reference value :  1.75755e-04
 Reference value :  1.75756e-04
 Reference value :  1.75757e-04
 Reference value :  1.75758e-04
 Reference value :  1.75759e-04
 Reference value :  1.75761e-04
 Reference value :  1.75763e-04
 Reference value :  1.75767e-04
 Reference value :  1.75771e-04
 Reference value :  1.75781e-04
 Reference value :  1.75799e-04
 Reference value :  1.75836e-04
 Reference value :  1.75911e-04
 Reference value :  1.76000e-04
 Reference value :  1.76000e-04
 Reference value :  1.76000e-04
 Reference value :  1.76000e-04
 Reference value :  1.76000e-04
 Reference value :  1.76000e-04
 Reference value :  1.76000e-04
 Reference value :  1.76000e-04
 Reference value :  1.76000e-04
 Reference value :  1.76000e-04
 Reference value :  1.76000e-04
 Reference value :  1.76001e-04
 Reference value :  1.76001e-04
 Reference value :  1.76001e-04
 Reference value :  1.76002e-04
 Reference value :  1.76002e-04
 Reference value :  1.76003e-04
 Reference value :  1.76004e-04
 Reference value :  1.76005e-04
 Reference value :  1.76005e-04
 Reference value :  1.76006e-04
 Reference value :  1.76007e-04
 Reference value :  1.76007e-04
 Reference value :  1.76008e-04
 Reference value :  1.76009e-04
 Reference value :  1.76011e-04
 Reference value :  1.76013e-04
 Reference value :  1.76015e-04
 Reference value :  1.76017e-04
 Reference value :  1.76019e-04
 Reference value :  1.76021e-04
 Reference value :  1.76023e-04
 Reference value :  1.76025e-04
 Reference value :  1.76026e-04
 Reference value :  1.76029e-04
 Reference value :  1.76031e-04
 Reference value :  1.76035e-04
 Reference value :  1.76039e-04
 Reference value :  1.76047e-04
 Reference value :  1.76056e-04
 Reference value :  1.76066e-04
 Reference value :  1.76076e-04
 Reference value :  1.76083e-04
 Reference value :  1.76091e-04
 Reference value :  1.76101e-04
 Reference value :  1.76116e-04
 Reference value :  1.76128e-04
 Reference value :  1.76143e-04
 Reference value :  1.76159e-04
 Reference value :  1.76191e-04
 Reference value :  1.76227e-04
 Reference value :  1.76250e-04
 Reference value :  1.76250e-04
 Reference value :  1.76250e-04
 Reference value :  1.76250e-04
 Reference value :  1.76250e-04
 Reference value :  1.76250e-04
 Reference value :  1.76250e-04
 Reference value :  1.76250e-04
 Reference value :  1.76250e-04
 Reference value :  1.76250e-04
 Reference value :  1.76250e-04
 Reference value :  1.76250e-04
 Reference value :  1.76250e-04
 Reference value :  1.76251e-04
 Reference value :  1.76251e-04
 Reference value :  1.76251e-04
 Reference value :  1.76252e-04
 Reference value :  1.76253e-04
 Reference value :  1.76253e-04
 Reference value :  1.76254e-04
 Reference value :  1.76255e-04
 Reference value :  1.76255e-04
 Reference value :  1.76256e-04
 Reference value :  1.76257e-04
 Reference value :  1.76258e-04
 Reference value :  1.76260e-04
 Reference value :  1.76262e-04
 Reference value :  1.76265e-04
 Reference value :  1.76269e-04
 Reference value :  1.76277e-04
 Reference value :  1.76292e-04
 Reference value :  1.76323e-04
 Reference value :  1.76385e-04
 Reference value :  1.76500e-04
 Reference value :  1.76500e-04
 Reference value :  1.76500e-04
 Reference value :  1.76500e-04
 Reference value :  1.76500e-04
 Reference value :  1.76500e-04
 Reference value :  1.76500e-04
 Reference value :  1.76500e-04
 Reference value :  1.76500e-04
 Reference value :  1.76500e-04
 Reference value :  1.76500e-04
 Reference value :  1.76501e-04
 Reference value :  1.76501e-04
 Reference value :  1.76501e-04
 Reference value :  1.76502e-04
 Reference value :  1.76502e-04
 Reference value :  1.76503e-04
 Reference value :  1.76504e-04
 Reference value :  1.76505e-04
 Reference value :  1.76505e-04
 Reference value :  1.76506e-04
 Reference value :  1.76507e-04
 Reference value :  1.76509e-04
 Reference value :  1.76510e-04
 Reference value :  1.76511e-04
 Reference value :  1.76512e-04
 Reference value :  1.76514e-04
 Reference value :  1.76515e-04
 Reference value :  1.76516e-04
 Reference value :  1.76519e-04
 Reference value :  1.76525e-04
 Reference value :  1.76536e-04
 Reference value :  1.76556e-04
 Reference value :  1.76598e-04
 Reference value :  1.76681e-04
 Reference value :  1.76750e-04
 Reference value :  1.76750e-04
 Reference value :  1.76750e-04
 Reference value :  1.76750e-04
 Reference value :  1.76750e-04
 Reference value :  1.76750e-04
 Reference value :  1.76750e-04
 Reference value :  1.76750e-04
 Reference value :  1.76750e-04
 Reference value :  1.76750e-04
 Reference value :  1.76750e-04
 Reference value :  1.76750e-04
 Reference value :  1.76750e-04
 Reference value :  1.76751e-04
 Reference value :  1.76751e-04
 Reference value :  1.76751e-04
 Reference value :  1.76752e-04
 Reference value :  1.76753e-04
 Reference value :  1.76753e-04
 Reference value :  1.76754e-04
 Reference value :  1.76755e-04
 Reference value :  1.76755e-04
 Reference value :  1.76756e-04
 Reference value :  1.76757e-04
 Reference value :  1.76758e-04
 Reference value :  1.76759e-04
 Reference value :  1.76760e-04
 Reference value :  1.76762e-04
 Reference value :  1.76764e-04
 Reference value :  1.76766e-04
 Reference value :  1.76769e-04
 Reference value :  1.76774e-04
 Reference value :  1.76783e-04
 Reference value :  1.76802e-04
 Reference value :  1.76838e-04
 Reference value :  1.76912e-04
 Reference value :  1.77000e-04
 Reference value :  1.77000e-04
 Reference value :  1.77000e-04
 Reference value :  1.77000e-04
 Reference value :  1.77000e-04
 Reference value :  1.77000e-04
 Reference value :  1.77000e-04
 Reference value :  1.77000e-04
 Reference value :  1.77000e-04
 Reference value :  1.77000e-04
 Reference value :  1.77000e-04
 Reference value :  1.77001e-04
 Reference value :  1.77001e-04
 Reference value :  1.77001e-04
 Reference value :  1.77002e-04
 Reference value :  1.77002e-04
 Reference value :  1.77003e-04
 Reference value :  1.77004e-04
 Reference value :  1.77005e-04
 Reference value :  1.77005e-04
 Reference value :  1.77006e-04
 Reference value :  1.77007e-04
 Reference value :  1.77007e-04
 Reference value :  1.77008e-04
 Reference value :  1.77009e-04
 Reference value :  1.77010e-04
 Reference value :  1.77012e-04
 Reference value :  1.77013e-04
 Reference value :  1.77014e-04
 Reference value :  1.77016e-04
 Reference value :  1.77017e-04
 Reference value :  1.77019e-04
 Reference value :  1.77020e-04
 Reference value :  1.77022e-04
 Reference value :  1.77023e-04
 Reference value :  1.77024e-04
 Reference value :  1.77026e-04
 Reference value :  1.77028e-04
 Reference value :  1.77030e-04
 Reference value :  1.77033e-04
 Reference value :  1.77035e-04
 Reference value :  1.77037e-04
 Reference value :  1.77040e-04
 Reference value :  1.77043e-04
 Reference value :  1.77049e-04
 Reference value :  1.77054e-04
 Reference value :  1.77062e-04
 Reference value :  1.77077e-04
 Reference value :  1.77100e-04
 Reference value :  1.77141e-04
 Reference value :  1.77213e-04
 Reference value :  1.77250e-04
 Reference value :  1.77250e-04
 Reference value :  1.77250e-04
 Reference value :  1.77250e-04
 Reference value :  1.77250e-04
 Reference value :  1.77250e-04
 Reference value :  1.77250e-04
 Reference value :  1.77250e-04
 Reference value :  1.77250e-04
 Reference value :  1.77250e-04
 Reference value :  1.77250e-04
 Reference value :  1.77250e-04
 Reference value :  1.77250e-04
 Reference value :  1.77251e-04
 Reference value :  1.77251e-04
 Reference value :  1.77251e-04
 Reference value :  1.77252e-04
 Reference value :  1.77253e-04
 Reference value :  1.77253e-04
 Reference value :  1.77254e-04
 Reference value :  1.77255e-04
 Reference value :  1.77255e-04
 Reference value :  1.77256e-04
 Reference value :  1.77257e-04
 Reference value :  1.77258e-04
 Reference value :  1.77260e-04
 Reference value :  1.77262e-04
 Reference value :  1.77265e-04
 Reference value :  1.77268e-04
 Reference value :  1.77276e-04
 Reference value :  1.77292e-04
 Reference value :  1.77322e-04
 Reference value :  1.77381e-04
 Reference value :  1.77500e-04
 Reference value :  1.77500e-04
 Reference value :  1.77500e-04
 Reference value :  1.77500e-04
 Reference value :  1.77500e-04
 Reference value :  1.77500e-04
 Reference value :  1.77500e-04
 Reference value :  1.77500e-04
 Reference value :  1.77500e-04
 Reference value :  1.77500e-04
 Reference value :  1.77500e-04
 Reference value :  1.77501e-04
 Reference value :  1.77501e-04
 Reference value :  1.77501e-04
 Reference value :  1.77502e-04
 Reference value :  1.77503e-04
 Reference value :  1.77503e-04
 Reference value :  1.77504e-04
 Reference value :  1.77505e-04
 Reference value :  1.77505e-04
 Reference value :  1.77506e-04
 Reference value :  1.77507e-04
 Reference value :  1.77509e-04
 Reference value :  1.77510e-04
 Reference value :  1.77511e-04
 Reference value :  1.77513e-04
 Reference value :  1.77514e-04
 Reference value :  1.77515e-04
 Reference value :  1.77517e-04
 Reference value :  1.77520e-04
 Reference value :  1.77526e-04
 Reference value :  1.77537e-04
 Reference value :  1.77559e-04
 Reference value :  1.77603e-04
 Reference value :  1.77692e-04
 Reference value :  1.77750e-04
 Reference value :  1.77750e-04
 Reference value :  1.77750e-04
 Reference value :  1.77750e-04
 Reference value :  1.77750e-04
 Reference value :  1.77750e-04
 Reference value :  1.77750e-04
 Reference value :  1.77750e-04
 Reference value :  1.77750e-04
 Reference value :  1.77750e-04
 Reference value :  1.77750e-04
 Reference value :  1.77750e-04
 Reference value :  1.77750e-04
 Reference value :  1.77751e-04
 Reference value :  1.77751e-04
 Reference value :  1.77751e-04
 Reference value :  1.77752e-04
 Reference value :  1.77753e-04
 Reference value :  1.77753e-04
 Reference value :  1.77754e-04
 Reference value :  1.77755e-04
 Reference value :  1.77755e-04
 Reference value :  1.77756e-04
 Reference value :  1.77757e-04
 Reference value :  1.77758e-04
 Reference value :  1.77759e-04
 Reference value :  1.77761e-04
 Reference value :  1.77763e-04
 Reference value :  1.77766e-04
 Reference value :  1.77771e-04
 Reference value :  1.77780e-04
 Reference value :  1.77797e-04
 Reference value :  1.77833e-04
 Reference value :  1.77904e-04
 Reference value :  1.78000e-04
 Reference value :  1.78000e-04
 Reference value :  1.78000e-04
 Reference value :  1.78000e-04
 Reference value :  1.78000e-04
 Reference value :  1.78000e-04
 Reference value :  1.78000e-04
 Reference value :  1.78000e-04
 Reference value :  1.78000e-04
 Reference value :  1.78000e-04
 Reference value :  1.78000e-04
 Reference value :  1.78001e-04
 Reference value :  1.78001e-04
 Reference value :  1.78001e-04
 Reference value :  1.78002e-04
 Reference value :  1.78002e-04
 Reference value :  1.78003e-04
 Reference value :  1.78004e-04
 Reference value :  1.78005e-04
 Reference value :  1.78005e-04
 Reference value :  1.78006e-04
 Reference value :  1.78007e-04
 Reference value :  1.78008e-04
 Reference value :  1.78008e-04
 Reference value :  1.78010e-04
 Reference value :  1.78011e-04
 Reference value :  1.78013e-04
 Reference value :  1.78016e-04
 Reference value :  1.78018e-04
 Reference value :  1.78020e-04
 Reference value :  1.78022e-04
 Reference value :  1.78024e-04
 Reference value :  1.78028e-04
 Reference value :  1.78033e-04
 Reference value :  1.78042e-04
 Reference value :  1.78056e-04
 Reference value :  1.78080e-04
 Reference value :  1.78122e-04
 Reference value :  1.78195e-04
 Reference value :  1.78250e-04
 Reference value :  1.78250e-04
 Reference value :  1.78250e-04
 Reference value :  1.78250e-04
 Reference value :  1.78250e-04
 Reference value :  1.78250e-04
 Reference value :  1.78250e-04
 Reference value :  1.78250e-04
 Reference value :  1.78250e-04
 Reference value :  1.78250e-04
 Reference value :  1.78250e-04
 Reference value :  1.78250e-04
 Reference value :  1.78250e-04
 Reference value :  1.78251e-04
 Reference value :  1.78251e-04
 Reference value :  1.78251e-04
 Reference value :  1.78252e-04
 Reference value :  1.78253e-04
 Reference value :  1.78253e-04
 Reference value :  1.78254e-04
 Reference value :  1.78255e-04
 Reference value :  1.78256e-04
 Reference value :  1.78258e-04
 Reference value :  1.78259e-04
 Reference value :  1.78261e-04
 Reference value :  1.78264e-04
 Reference value :  1.78267e-04
 Reference value :  1.78273e-04
 Reference value :  1.78284e-04
 Reference value :  1.78307e-04
 Reference value :  1.78351e-04
 Reference value :  1.78441e-04
 Reference value :  1.78500e-04
No. of Data Rows : 27458
ngspice-44 done
