
Note: Compatibility modes selected: hs a


Circuit: ** sch_path: /home/ece/cace/sar-adc-using-sky130-pdk/runs/run_2025-09-12_20-46-03/parameters/dnl/run_4/sar_output_dnl.sch

option SCALE: Scale is set to 1e-06 for instance and model parameters
option SCALE: Scale is set to 1e-06 for instance and model parameters
option SCALE: Scale is set to 1e-06 for instance and model parameters
option SCALE: Scale is set to 1e-06 for instance and model parameters
Doing analysis at TEMP = 27.000000 and TNOM = 27.000000

Using KLU as Direct Linear Solver
Operating point simulation skipped by 'uic',
  now using transient initial conditions.
 Reference value :  1.00000e-12
 Reference value :  1.08400e-12
 Reference value :  1.73435e-12
 Reference value :  6.47098e-12
 Reference value :  3.22030e-11
 Reference value :  1.00000e-10
 Reference value :  1.73465e-10
 Reference value :  9.72273e-10
 Reference value :  2.51064e-09
 Reference value :  5.08554e-09
 Reference value :  7.14286e-09
 Reference value :  9.24683e-09
 Reference value :  1.12165e-08
 Reference value :  1.59148e-08
 Reference value :  2.26758e-08
 Reference value :  3.49930e-08
 Reference value :  1.03555e-07
 Reference value :  2.50100e-07
 Reference value :  2.50170e-07
 Reference value :  2.50223e-07
 Reference value :  2.50308e-07
 Reference value :  2.50646e-07
 Reference value :  2.51621e-07
 Reference value :  2.53380e-07
 Reference value :  2.53899e-07
 Reference value :  2.55102e-07
 Reference value :  2.57587e-07
 Reference value :  2.63357e-07
 Reference value :  2.99826e-07
 Reference value :  5.00000e-07
 Reference value :  5.00070e-07
 Reference value :  5.00124e-07
 Reference value :  5.00337e-07
 Reference value :  5.01286e-07
 Reference value :  5.02180e-07
 Reference value :  5.03934e-07
 Reference value :  5.06733e-07
 Reference value :  5.07963e-07
 Reference value :  5.12028e-07
 Reference value :  5.15240e-07
 Reference value :  5.19441e-07
 Reference value :  5.31622e-07
 Reference value :  6.24542e-07
 Reference value :  7.50110e-07
 Reference value :  7.50200e-07
 Reference value :  7.50318e-07
 Reference value :  7.50948e-07
 Reference value :  7.51856e-07
 Reference value :  7.53027e-07
 Reference value :  7.54418e-07
 Reference value :  7.56748e-07
 Reference value :  7.59345e-07
 Reference value :  7.68446e-07
 Reference value :  8.60930e-07
 Reference value :  1.00003e-06
 Reference value :  1.00012e-06
 Reference value :  1.00034e-06
 Reference value :  1.00128e-06
 Reference value :  1.00219e-06
 Reference value :  1.00329e-06
 Reference value :  1.00442e-06
 Reference value :  1.00557e-06
 Reference value :  1.00609e-06
 Reference value :  1.00755e-06
 Reference value :  1.00973e-06
 Reference value :  1.01069e-06
 Reference value :  1.01283e-06
 Reference value :  1.01547e-06
 Reference value :  1.01854e-06
 Reference value :  1.02132e-06
 Reference value :  1.05684e-06
 Reference value :  1.25010e-06
 Reference value :  1.25017e-06
 Reference value :  1.25026e-06
 Reference value :  1.25068e-06
 Reference value :  1.25138e-06
 Reference value :  1.25236e-06
 Reference value :  1.25376e-06
 Reference value :  1.25503e-06
 Reference value :  1.25665e-06
 Reference value :  1.26148e-06
 Reference value :  1.28467e-06
 Reference value :  1.41269e-06
 Reference value :  1.50003e-06
 Reference value :  1.50010e-06
 Reference value :  1.50016e-06
 Reference value :  1.50034e-06
 Reference value :  1.50083e-06
 Reference value :  1.50129e-06
 Reference value :  1.50218e-06
 Reference value :  1.50395e-06
 Reference value :  1.50553e-06
 Reference value :  1.50734e-06
 Reference value :  1.50903e-06
 Reference value :  1.51120e-06
 Reference value :  1.52889e-06
 Reference value :  1.65883e-06
 Reference value :  1.75011e-06
 Reference value :  1.75017e-06
 Reference value :  1.75022e-06
 Reference value :  1.75044e-06
 Reference value :  1.75094e-06
 Reference value :  1.75138e-06
 Reference value :  1.75236e-06
 Reference value :  1.75377e-06
 Reference value :  1.75440e-06
 Reference value :  1.75577e-06
 Reference value :  1.75672e-06
 Reference value :  1.75844e-06
 Reference value :  1.76216e-06
 Reference value :  1.77537e-06
 Reference value :  1.85098e-06
 Reference value :  2.00001e-06
 Reference value :  2.00010e-06
 Reference value :  2.00016e-06
 Reference value :  2.00034e-06
 Reference value :  2.00083e-06
 Reference value :  2.00176e-06
 Reference value :  2.00219e-06
 Reference value :  2.00329e-06
 Reference value :  2.00441e-06
 Reference value :  2.00556e-06
 Reference value :  2.00670e-06
 Reference value :  2.00973e-06
 Reference value :  2.01071e-06
 Reference value :  2.01284e-06
 Reference value :  2.01369e-06
 Reference value :  2.01547e-06
 Reference value :  2.01645e-06
 Reference value :  2.01853e-06
 Reference value :  2.02129e-06
 Reference value :  2.03199e-06
 Reference value :  2.08142e-06
 Reference value :  2.24667e-06
 Reference value :  2.25013e-06
 Reference value :  2.25021e-06
 Reference value :  2.25032e-06
 Reference value :  2.25095e-06
 Reference value :  2.25185e-06
 Reference value :  2.25302e-06
 Reference value :  2.25437e-06
 Reference value :  2.25569e-06
 Reference value :  2.25761e-06
 Reference value :  2.26541e-06
 Reference value :  2.30569e-06
 Reference value :  2.50000e-06
 Reference value :  2.50007e-06
 Reference value :  2.50016e-06
 Reference value :  2.50050e-06
 Reference value :  2.50176e-06
 Reference value :  2.50265e-06
 Reference value :  2.50395e-06
 Reference value :  2.50657e-06
 Reference value :  2.50817e-06
 Reference value :  2.51120e-06
 Reference value :  2.52891e-06
 Reference value :  2.75011e-06
 Reference value :  2.75022e-06
 Reference value :  2.75094e-06
 Reference value :  2.75185e-06
 Reference value :  2.75376e-06
 Reference value :  2.75577e-06
 Reference value :  2.75843e-06
 Reference value :  2.76215e-06
 Reference value :  2.80817e-06
 Reference value :  3.00003e-06
 Reference value :  3.00011e-06
 Reference value :  3.00022e-06
 Reference value :  3.00083e-06
 Reference value :  3.00176e-06
 Reference value :  3.00219e-06
 Reference value :  3.00329e-06
 Reference value :  3.00441e-06
 Reference value :  3.00556e-06
 Reference value :  3.00609e-06
 Reference value :  3.00756e-06
 Reference value :  3.00973e-06
 Reference value :  3.01071e-06
 Reference value :  3.01174e-06
 Reference value :  3.01369e-06
 Reference value :  3.01546e-06
 Reference value :  3.01745e-06
 Reference value :  3.01963e-06
 Reference value :  3.02305e-06
 Reference value :  3.04071e-06
 Reference value :  3.08028e-06
 Reference value :  3.13603e-06
 Reference value :  3.22908e-06
 Reference value :  3.25011e-06
 Reference value :  3.25020e-06
 Reference value :  3.25032e-06
 Reference value :  3.25069e-06
 Reference value :  3.25138e-06
 Reference value :  3.25236e-06
 Reference value :  3.25375e-06
 Reference value :  3.25502e-06
 Reference value :  3.25663e-06
 Reference value :  3.26142e-06
 Reference value :  3.28402e-06
 Reference value :  3.40766e-06
 Reference value :  3.50003e-06
 Reference value :  3.50010e-06
 Reference value :  3.50016e-06
 Reference value :  3.50034e-06
 Reference value :  3.50129e-06
 Reference value :  3.50218e-06
 Reference value :  3.50395e-06
 Reference value :  3.50553e-06
 Reference value :  3.50734e-06
 Reference value :  3.50903e-06
 Reference value :  3.51119e-06
 Reference value :  3.51957e-06
 Reference value :  3.54759e-06
 Reference value :  3.75010e-06
 Reference value :  3.75013e-06
 Reference value :  3.75021e-06
 Reference value :  3.75044e-06
 Reference value :  3.75138e-06
 Reference value :  3.75235e-06
 Reference value :  3.75376e-06
 Reference value :  3.75439e-06
 Reference value :  3.75576e-06
 Reference value :  3.75758e-06
 Reference value :  3.75933e-06
 Reference value :  3.76486e-06
 Reference value :  3.80776e-06
 Reference value :  4.00001e-06
 Reference value :  4.00010e-06
 Reference value :  4.00016e-06
 Reference value :  4.00050e-06
 Reference value :  4.00128e-06
 Reference value :  4.00219e-06
 Reference value :  4.00329e-06
 Reference value :  4.00441e-06
 Reference value :  4.00556e-06
 Reference value :  4.00609e-06
 Reference value :  4.00756e-06
 Reference value :  4.00973e-06
 Reference value :  4.01174e-06
 Reference value :  4.01368e-06
 Reference value :  4.01644e-06
 Reference value :  4.01852e-06
 Reference value :  4.02127e-06
 Reference value :  4.03191e-06
 Reference value :  4.04939e-06
 Reference value :  4.06827e-06
 Reference value :  4.08486e-06
 Reference value :  4.12716e-06
 Reference value :  4.25011e-06
 Reference value :  4.25022e-06
 Reference value :  4.25069e-06
 Reference value :  4.25185e-06
 Reference value :  4.25375e-06
 Reference value :  4.25502e-06
 Reference value :  4.25759e-06
 Reference value :  4.27241e-06
 Reference value :  4.50000e-06
 Reference value :  4.50007e-06
 Reference value :  4.50016e-06
 Reference value :  4.50050e-06
 Reference value :  4.50129e-06
 Reference value :  4.50265e-06
 Reference value :  4.50395e-06
 Reference value :  4.50553e-06
 Reference value :  4.50734e-06
 Reference value :  4.50903e-06
 Reference value :  4.51241e-06
 Reference value :  4.54762e-06
 Reference value :  4.75010e-06
 Reference value :  4.75017e-06
 Reference value :  4.75026e-06
 Reference value :  4.75068e-06
 Reference value :  4.75138e-06
 Reference value :  4.75302e-06
 Reference value :  4.75505e-06
 Reference value :  4.75757e-06
 Reference value :  4.76214e-06
 Reference value :  4.80753e-06
 Reference value :  5.00001e-06
 Reference value :  5.00011e-06
 Reference value :  5.00034e-06
 Reference value :  5.00128e-06
 Reference value :  5.00268e-06
 Reference value :  5.00391e-06
 Reference value :  5.00499e-06
 Reference value :  5.00556e-06
 Reference value :  5.00609e-06
 Reference value :  5.00843e-06
 Reference value :  5.01071e-06
 Reference value :  5.01285e-06
 Reference value :  5.01448e-06
 Reference value :  5.01652e-06
 Reference value :  5.01995e-06
 Reference value :  5.02754e-06
 Reference value :  5.05021e-06
 Reference value :  5.07402e-06
 Reference value :  5.13881e-06
 Reference value :  5.25011e-06
 Reference value :  5.25021e-06
 Reference value :  5.25044e-06
 Reference value :  5.25138e-06
 Reference value :  5.25375e-06
 Reference value :  5.25437e-06
 Reference value :  5.25567e-06
 Reference value :  5.25912e-06
 Reference value :  5.28376e-06
 Reference value :  5.40547e-06
 Reference value :  5.50003e-06
 Reference value :  5.50010e-06
 Reference value :  5.50012e-06
 Reference value :  5.50022e-06
 Reference value :  5.50050e-06
 Reference value :  5.50129e-06
 Reference value :  5.50218e-06
 Reference value :  5.50332e-06
 Reference value :  5.50473e-06
 Reference value :  5.50657e-06
 Reference value :  5.50734e-06
 Reference value :  5.50903e-06
 Reference value :  5.51119e-06
 Reference value :  5.51956e-06
 Reference value :  5.58500e-06
 Reference value :  5.75013e-06
 Reference value :  5.75020e-06
 Reference value :  5.75026e-06
 Reference value :  5.75068e-06
 Reference value :  5.75138e-06
 Reference value :  5.75235e-06
 Reference value :  5.75376e-06
 Reference value :  5.75439e-06
 Reference value :  5.75576e-06
 Reference value :  5.75757e-06
 Reference value :  5.75933e-06
 Reference value :  5.76214e-06
 Reference value :  5.77522e-06
 Reference value :  5.92382e-06
 Reference value :  6.00003e-06
 Reference value :  6.00011e-06
 Reference value :  6.00022e-06
 Reference value :  6.00083e-06
 Reference value :  6.00128e-06
 Reference value :  6.00219e-06
 Reference value :  6.00329e-06
 Reference value :  6.00441e-06
 Reference value :  6.00556e-06
 Reference value :  6.00609e-06
 Reference value :  6.00756e-06
 Reference value :  6.00973e-06
 Reference value :  6.01071e-06
 Reference value :  6.01285e-06
 Reference value :  6.01368e-06
 Reference value :  6.01554e-06
 Reference value :  6.01756e-06
 Reference value :  6.02177e-06
 Reference value :  6.03061e-06
 Reference value :  6.03425e-06
 Reference value :  6.05119e-06
 Reference value :  6.14127e-06
 Reference value :  6.25011e-06
 Reference value :  6.25017e-06
 Reference value :  6.25022e-06
 Reference value :  6.25045e-06
 Reference value :  6.25138e-06
 Reference value :  6.25235e-06
 Reference value :  6.25375e-06
 Reference value :  6.25437e-06
 Reference value :  6.25567e-06
 Reference value :  6.25759e-06
 Reference value :  6.26532e-06
 Reference value :  6.30437e-06
 Reference value :  6.50000e-06
 Reference value :  6.50007e-06
 Reference value :  6.50012e-06
 Reference value :  6.50050e-06
 Reference value :  6.50129e-06
 Reference value :  6.50218e-06
 Reference value :  6.50332e-06
 Reference value :  6.50395e-06
 Reference value :  6.50473e-06
 Reference value :  6.50657e-06
 Reference value :  6.50734e-06
 Reference value :  6.50903e-06
 Reference value :  6.51119e-06
 Reference value :  6.51955e-06
 Reference value :  6.58508e-06
 Reference value :  6.75011e-06
 Reference value :  6.75020e-06
 Reference value :  6.75022e-06
 Reference value :  6.75032e-06
 Reference value :  6.75068e-06
 Reference value :  6.75138e-06
 Reference value :  6.75235e-06
 Reference value :  6.75376e-06
 Reference value :  6.75439e-06
 Reference value :  6.75576e-06
 Reference value :  6.75757e-06
 Reference value :  6.75933e-06
 Reference value :  6.76484e-06
 Reference value :  6.78719e-06
 Reference value :  6.92303e-06
 Reference value :  7.00003e-06
 Reference value :  7.00010e-06
 Reference value :  7.00016e-06
 Reference value :  7.00034e-06
 Reference value :  7.00128e-06
 Reference value :  7.00219e-06
 Reference value :  7.00329e-06
 Reference value :  7.00441e-06
 Reference value :  7.00556e-06
 Reference value :  7.00609e-06
 Reference value :  7.00756e-06
 Reference value :  7.00973e-06
 Reference value :  7.01072e-06
 Reference value :  7.01286e-06
 Reference value :  7.01447e-06
 Reference value :  7.01652e-06
 Reference value :  7.01881e-06
 Reference value :  7.02179e-06
 Reference value :  7.03645e-06
 Reference value :  7.15688e-06
 Reference value :  7.25011e-06
 Reference value :  7.25020e-06
 Reference value :  7.25032e-06
 Reference value :  7.25094e-06
 Reference value :  7.25185e-06
 Reference value :  7.25375e-06
 Reference value :  7.25501e-06
 Reference value :  7.25759e-06
 Reference value :  7.27230e-06
 Reference value :  7.40416e-06
 Reference value :  7.50007e-06
 Reference value :  7.50016e-06
 Reference value :  7.50083e-06
 Reference value :  7.50129e-06
 Reference value :  7.50218e-06
 Reference value :  7.50395e-06
 Reference value :  7.50553e-06
 Reference value :  7.50734e-06
 Reference value :  7.50903e-06
 Reference value :  7.51486e-06
 Reference value :  7.66017e-06
 Reference value :  7.75017e-06
 Reference value :  7.75044e-06
 Reference value :  7.75185e-06
 Reference value :  7.75438e-06
 Reference value :  7.75757e-06
 Reference value :  7.76214e-06
 Reference value :  7.80702e-06
 Reference value :  8.00007e-06
 Reference value :  8.00016e-06
 Reference value :  8.00083e-06
 Reference value :  8.00219e-06
 Reference value :  8.00391e-06
 Reference value :  8.00499e-06
 Reference value :  8.00609e-06
 Reference value :  8.00843e-06
 Reference value :  8.01078e-06
 Reference value :  8.01580e-06
 Reference value :  8.03145e-06
 Reference value :  8.14742e-06
 Reference value :  8.25013e-06
 Reference value :  8.25026e-06
 Reference value :  8.25095e-06
 Reference value :  8.25237e-06
 Reference value :  8.25475e-06
 Reference value :  8.25789e-06
 Reference value :  8.27124e-06
 Reference value :  8.49659e-06
 Reference value :  8.50000e-06
 Reference value :  8.50000e-06
 Reference value :  8.50001e-06
 Reference value :  8.50010e-06
 Reference value :  8.50018e-06
 Reference value :  8.50119e-06
 Reference value :  8.50268e-06
 Reference value :  8.50475e-06
 Reference value :  8.50608e-06
 Reference value :  8.51088e-06
 Reference value :  8.52743e-06
 Reference value :  8.53204e-06
 Reference value :  8.53957e-06
 Reference value :  8.54744e-06
 Reference value :  8.57715e-06
 Reference value :  8.75010e-06
 Reference value :  8.75021e-06
 Reference value :  8.75069e-06
 Reference value :  8.75185e-06
 Reference value :  8.75373e-06
 Reference value :  8.75583e-06
 Reference value :  8.76192e-06
 Reference value :  8.83815e-06
 Reference value :  9.00007e-06
 Reference value :  9.00012e-06
 Reference value :  9.00034e-06
 Reference value :  9.00129e-06
 Reference value :  9.00218e-06
 Reference value :  9.00393e-06
 Reference value :  9.00673e-06
 Reference value :  9.00798e-06
 Reference value :  9.01204e-06
 Reference value :  9.01516e-06
 Reference value :  9.02119e-06
 Reference value :  9.05299e-06
 Reference value :  9.25010e-06
 Reference value :  9.25020e-06
 Reference value :  9.25026e-06
 Reference value :  9.25068e-06
 Reference value :  9.25138e-06
 Reference value :  9.25302e-06
 Reference value :  9.25439e-06
 Reference value :  9.25670e-06
 Reference value :  9.25932e-06
 Reference value :  9.26410e-06
 Reference value :  9.28696e-06
 Reference value :  9.40801e-06
 Reference value :  9.50007e-06
 Reference value :  9.50012e-06
 Reference value :  9.50034e-06
 Reference value :  9.50128e-06
 Reference value :  9.50219e-06
 Reference value :  9.50329e-06
 Reference value :  9.50442e-06
 Reference value :  9.50556e-06
 Reference value :  9.50609e-06
 Reference value :  9.50755e-06
 Reference value :  9.50973e-06
 Reference value :  9.51070e-06
 Reference value :  9.51284e-06
 Reference value :  9.51452e-06
 Reference value :  9.51646e-06
 Reference value :  9.51977e-06
 Reference value :  9.52695e-06
 Reference value :  9.58477e-06
 Reference value :  9.75010e-06
 Reference value :  9.75017e-06
 Reference value :  9.75026e-06
 Reference value :  9.75068e-06
 Reference value :  9.75138e-06
 Reference value :  9.75302e-06
 Reference value :  9.75437e-06
 Reference value :  9.75665e-06
 Reference value :  9.76150e-06
 Reference value :  9.80415e-06
 Reference value :  1.00000e-05
 Reference value :  1.00001e-05
 Reference value :  1.00001e-05
 Reference value :  1.00003e-05
 Reference value :  1.00013e-05
 Reference value :  1.00022e-05
 Reference value :  1.00039e-05
 Reference value :  1.00055e-05
 Reference value :  1.00073e-05
 Reference value :  1.00090e-05
 Reference value :  1.00124e-05
 Reference value :  1.00475e-05
 Reference value :  1.02501e-05
 Reference value :  1.02501e-05
 Reference value :  1.02502e-05
 Reference value :  1.02503e-05
 Reference value :  1.02504e-05
 Reference value :  1.02509e-05
 Reference value :  1.02514e-05
 Reference value :  1.02524e-05
 Reference value :  1.02530e-05
 Reference value :  1.02538e-05
 Reference value :  1.02544e-05
 Reference value :  1.02558e-05
 Reference value :  1.02576e-05
 Reference value :  1.02593e-05
 Reference value :  1.02621e-05
 Reference value :  1.02752e-05
 Reference value :  1.03077e-05
 Reference value :  1.04247e-05
 Reference value :  1.05000e-05
 Reference value :  1.05001e-05
 Reference value :  1.05002e-05
 Reference value :  1.05005e-05
 Reference value :  1.05013e-05
 Reference value :  1.05022e-05
 Reference value :  1.05033e-05
 Reference value :  1.05044e-05
 Reference value :  1.05056e-05
 Reference value :  1.05061e-05
 Reference value :  1.05076e-05
 Reference value :  1.05097e-05
 Reference value :  1.05107e-05
 Reference value :  1.05128e-05
 Reference value :  1.05137e-05
 Reference value :  1.05155e-05
 Reference value :  1.05175e-05
 Reference value :  1.05197e-05
 Reference value :  1.05231e-05
 Reference value :  1.05413e-05
 Reference value :  1.06245e-05
 Reference value :  1.07501e-05
 Reference value :  1.07502e-05
 Reference value :  1.07503e-05
 Reference value :  1.07507e-05
 Reference value :  1.07514e-05
 Reference value :  1.07530e-05
 Reference value :  1.07544e-05
 Reference value :  1.07567e-05
 Reference value :  1.07655e-05
 Reference value :  1.09025e-05
 Reference value :  1.10001e-05
 Reference value :  1.10005e-05
 Reference value :  1.10022e-05
 Reference value :  1.10039e-05
 Reference value :  1.10066e-05
 Reference value :  1.10082e-05
 Reference value :  1.10112e-05
 Reference value :  1.10196e-05
 Reference value :  1.11593e-05
 Reference value :  1.12502e-05
 Reference value :  1.12502e-05
 Reference value :  1.12503e-05
 Reference value :  1.12507e-05
 Reference value :  1.12514e-05
 Reference value :  1.12524e-05
 Reference value :  1.12538e-05
 Reference value :  1.12550e-05
 Reference value :  1.12567e-05
 Reference value :  1.12584e-05
 Reference value :  1.12621e-05
 Reference value :  1.12752e-05
 Reference value :  1.14250e-05
 Reference value :  1.15000e-05
 Reference value :  1.15001e-05
 Reference value :  1.15002e-05
 Reference value :  1.15005e-05
 Reference value :  1.15013e-05
 Reference value :  1.15022e-05
 Reference value :  1.15039e-05
 Reference value :  1.15050e-05
 Reference value :  1.15056e-05
 Reference value :  1.15067e-05
 Reference value :  1.15097e-05
 Reference value :  1.15117e-05
 Reference value :  1.15137e-05
 Reference value :  1.15155e-05
 Reference value :  1.15175e-05
 Reference value :  1.15214e-05
 Reference value :  1.15324e-05
 Reference value :  1.15813e-05
 Reference value :  1.16393e-05
 Reference value :  1.17319e-05
 Reference value :  1.17501e-05
 Reference value :  1.17502e-05
 Reference value :  1.17503e-05
 Reference value :  1.17507e-05
 Reference value :  1.17514e-05
 Reference value :  1.17524e-05
 Reference value :  1.17537e-05
 Reference value :  1.17550e-05
 Reference value :  1.17577e-05
 Reference value :  1.17724e-05
 Reference value :  1.19025e-05
 Reference value :  1.20001e-05
 Reference value :  1.20002e-05
 Reference value :  1.20013e-05
 Reference value :  1.20022e-05
 Reference value :  1.20039e-05
 Reference value :  1.20066e-05
 Reference value :  1.20082e-05
 Reference value :  1.20100e-05
 Reference value :  1.20196e-05
 Reference value :  1.21593e-05
 Reference value :  1.22502e-05
 Reference value :  1.22503e-05
 Reference value :  1.22507e-05
 Reference value :  1.22514e-05
 Reference value :  1.22530e-05
 Reference value :  1.22550e-05
 Reference value :  1.22576e-05
 Reference value :  1.22607e-05
 Reference value :  1.22683e-05
 Reference value :  1.23077e-05
 Reference value :  1.25000e-05
 Reference value :  1.25000e-05
 Reference value :  1.25001e-05
 Reference value :  1.25001e-05
 Reference value :  1.25002e-05
 Reference value :  1.25008e-05
 Reference value :  1.25018e-05
 Reference value :  1.25022e-05
 Reference value :  1.25033e-05
 Reference value :  1.25044e-05
 Reference value :  1.25056e-05
 Reference value :  1.25067e-05
 Reference value :  1.25097e-05
 Reference value :  1.25117e-05
 Reference value :  1.25137e-05
 Reference value :  1.25155e-05
 Reference value :  1.25187e-05
 Reference value :  1.25214e-05
 Reference value :  1.25493e-05
 Reference value :  1.25672e-05
 Reference value :  1.25947e-05
 Reference value :  1.26823e-05
 Reference value :  1.27501e-05
 Reference value :  1.27502e-05
 Reference value :  1.27503e-05
 Reference value :  1.27507e-05
 Reference value :  1.27514e-05
 Reference value :  1.27530e-05
 Reference value :  1.27544e-05
 Reference value :  1.27567e-05
 Reference value :  1.27655e-05
 Reference value :  1.28386e-05
 Reference value :  1.30000e-05
 Reference value :  1.30001e-05
 Reference value :  1.30002e-05
 Reference value :  1.30008e-05
 Reference value :  1.30018e-05
 Reference value :  1.30026e-05
 Reference value :  1.30039e-05
 Reference value :  1.30055e-05
 Reference value :  1.30073e-05
 Reference value :  1.30090e-05
 Reference value :  1.30148e-05
 Reference value :  1.30848e-05
 Reference value :  1.32501e-05
 Reference value :  1.32502e-05
 Reference value :  1.32507e-05
 Reference value :  1.32514e-05
 Reference value :  1.32530e-05
 Reference value :  1.32544e-05
 Reference value :  1.32567e-05
 Reference value :  1.32593e-05
 Reference value :  1.32683e-05
 Reference value :  1.33481e-05
 Reference value :  1.35001e-05
 Reference value :  1.35002e-05
 Reference value :  1.35013e-05
 Reference value :  1.35027e-05
 Reference value :  1.35039e-05
 Reference value :  1.35050e-05
 Reference value :  1.35061e-05
 Reference value :  1.35097e-05
 Reference value :  1.35117e-05
 Reference value :  1.35137e-05
 Reference value :  1.35165e-05
 Reference value :  1.35200e-05
 Reference value :  1.35277e-05
 Reference value :  1.35502e-05
 Reference value :  1.35893e-05
 Reference value :  1.36444e-05
 Reference value :  1.37501e-05
 Reference value :  1.37502e-05
 Reference value :  1.37503e-05
 Reference value :  1.37509e-05
 Reference value :  1.37518e-05
 Reference value :  1.37537e-05
 Reference value :  1.37550e-05
 Reference value :  1.37592e-05
 Reference value :  1.38041e-05
 Reference value :  1.40000e-05
 Reference value :  1.40001e-05
 Reference value :  1.40002e-05
 Reference value :  1.40003e-05
 Reference value :  1.40013e-05
 Reference value :  1.40022e-05
 Reference value :  1.40039e-05
 Reference value :  1.40055e-05
 Reference value :  1.40073e-05
 Reference value :  1.40090e-05
 Reference value :  1.40124e-05
 Reference value :  1.40475e-05
 Reference value :  1.42501e-05
 Reference value :  1.42502e-05
 Reference value :  1.42504e-05
 Reference value :  1.42514e-05
 Reference value :  1.42530e-05
 Reference value :  1.42544e-05
 Reference value :  1.42567e-05
 Reference value :  1.42584e-05
 Reference value :  1.42621e-05
 Reference value :  1.42752e-05
 Reference value :  1.43477e-05
 Reference value :  1.45000e-05
 Reference value :  1.45001e-05
 Reference value :  1.45002e-05
 Reference value :  1.45005e-05
 Reference value :  1.45013e-05
 Reference value :  1.45022e-05
 Reference value :  1.45033e-05
 Reference value :  1.45044e-05
 Reference value :  1.45056e-05
 Reference value :  1.45067e-05
 Reference value :  1.45084e-05
 Reference value :  1.45107e-05
 Reference value :  1.45129e-05
 Reference value :  1.45137e-05
 Reference value :  1.45155e-05
 Reference value :  1.45176e-05
 Reference value :  1.45220e-05
 Reference value :  1.45308e-05
 Reference value :  1.45522e-05
 Reference value :  1.47059e-05
 Reference value :  1.47501e-05
 Reference value :  1.47502e-05
 Reference value :  1.47503e-05
 Reference value :  1.47509e-05
 Reference value :  1.47518e-05
 Reference value :  1.47530e-05
 Reference value :  1.47544e-05
 Reference value :  1.47557e-05
 Reference value :  1.47592e-05
 Reference value :  1.47724e-05
 Reference value :  1.48385e-05
 Reference value :  1.50000e-05
 Reference value :  1.50001e-05
 Reference value :  1.50001e-05
 Reference value :  1.50002e-05
 Reference value :  1.50008e-05
 Reference value :  1.50013e-05
 Reference value :  1.50022e-05
 Reference value :  1.50033e-05
 Reference value :  1.50039e-05
 Reference value :  1.50047e-05
 Reference value :  1.50066e-05
 Reference value :  1.50073e-05
 Reference value :  1.50090e-05
 Reference value :  1.50112e-05
 Reference value :  1.50289e-05
 Reference value :  1.52501e-05
 Reference value :  1.52502e-05
 Reference value :  1.52504e-05
 Reference value :  1.52514e-05
 Reference value :  1.52530e-05
 Reference value :  1.52544e-05
 Reference value :  1.52567e-05
 Reference value :  1.52584e-05
 Reference value :  1.52621e-05
 Reference value :  1.52872e-05
 Reference value :  1.55000e-05
 Reference value :  1.55013e-05
 Reference value :  1.55051e-05
 Reference value :  1.55084e-05
 Reference value :  1.55123e-05
 Reference value :  1.55141e-05
 Reference value :  1.55157e-05
 Reference value :  1.55176e-05
 Reference value :  1.55197e-05
 Reference value :  1.55230e-05
 Reference value :  1.55338e-05
 Reference value :  1.55816e-05
 Reference value :  1.57501e-05
 Reference value :  1.57502e-05
 Reference value :  1.57502e-05
 Reference value :  1.57504e-05
 Reference value :  1.57514e-05
 Reference value :  1.57524e-05
 Reference value :  1.57543e-05
 Reference value :  1.57566e-05
 Reference value :  1.57613e-05
 Reference value :  1.58032e-05
 Reference value :  1.60000e-05
 Reference value :  1.60001e-05
 Reference value :  1.60002e-05
 Reference value :  1.60008e-05
 Reference value :  1.60018e-05
 Reference value :  1.60026e-05
 Reference value :  1.60039e-05
 Reference value :  1.60055e-05
 Reference value :  1.60073e-05
 Reference value :  1.60090e-05
 Reference value :  1.60112e-05
 Reference value :  1.60287e-05
 Reference value :  1.62501e-05
 Reference value :  1.62502e-05
 Reference value :  1.62504e-05
 Reference value :  1.62514e-05
 Reference value :  1.62530e-05
 Reference value :  1.62544e-05
 Reference value :  1.62567e-05
 Reference value :  1.62593e-05
 Reference value :  1.62683e-05
 Reference value :  1.64241e-05
 Reference value :  1.65001e-05
 Reference value :  1.65002e-05
 Reference value :  1.65013e-05
 Reference value :  1.65022e-05
 Reference value :  1.65033e-05
 Reference value :  1.65044e-05
 Reference value :  1.65056e-05
 Reference value :  1.65067e-05
 Reference value :  1.65093e-05
 Reference value :  1.65108e-05
 Reference value :  1.65150e-05
 Reference value :  1.65168e-05
 Reference value :  1.65244e-05
 Reference value :  1.65600e-05
 Reference value :  1.66688e-05
 Reference value :  1.67149e-05
 Reference value :  1.67501e-05
 Reference value :  1.67502e-05
 Reference value :  1.67510e-05
 Reference value :  1.67530e-05
 Reference value :  1.67556e-05
 Reference value :  1.67592e-05
 Reference value :  1.68254e-05
 Reference value :  1.68923e-05
 Reference value :  1.70000e-05
 Reference value :  1.70000e-05
 Reference value :  1.70000e-05
 Reference value :  1.70001e-05
 Reference value :  1.70003e-05
 Reference value :  1.70017e-05
 Reference value :  1.70033e-05
 Reference value :  1.70054e-05
 Reference value :  1.70068e-05
 Reference value :  1.70109e-05
 Reference value :  1.70208e-05
 Reference value :  1.70275e-05
 Reference value :  1.70321e-05
 Reference value :  1.70402e-05
 Reference value :  1.70460e-05
 Reference value :  1.70515e-05
 Reference value :  1.70567e-05
 Reference value :  1.70717e-05
 Reference value :  1.70916e-05
 Reference value :  1.72317e-05
 Reference value :  1.72501e-05
 Reference value :  1.72502e-05
 Reference value :  1.72503e-05
 Reference value :  1.72509e-05
 Reference value :  1.72518e-05
 Reference value :  1.72530e-05
 Reference value :  1.72544e-05
 Reference value :  1.72558e-05
 Reference value :  1.72578e-05
 Reference value :  1.72618e-05
 Reference value :  1.72844e-05
 Reference value :  1.74000e-05
 Reference value :  1.75000e-05
 Reference value :  1.75001e-05
 Reference value :  1.75002e-05
 Reference value :  1.75005e-05
 Reference value :  1.75013e-05
 Reference value :  1.75022e-05
 Reference value :  1.75039e-05
 Reference value :  1.75066e-05
 Reference value :  1.75078e-05
 Reference value :  1.75117e-05
 Reference value :  1.75154e-05
 Reference value :  1.75218e-05
 Reference value :  1.75567e-05
 Reference value :  1.77501e-05
 Reference value :  1.77502e-05
 Reference value :  1.77503e-05
 Reference value :  1.77514e-05
 Reference value :  1.77530e-05
 Reference value :  1.77544e-05
 Reference value :  1.77558e-05
 Reference value :  1.77576e-05
 Reference value :  1.77604e-05
 Reference value :  1.77715e-05
 Reference value :  1.78000e-05
 Reference value :  1.79056e-05
 Reference value :  1.80017e-05
 Reference value :  1.80052e-05
 Reference value :  1.80070e-05
 Reference value :  1.80101e-05
 Reference value :  1.80112e-05
 Reference value :  1.80124e-05
 Reference value :  1.80148e-05
 Reference value :  1.80170e-05
 Reference value :  1.80194e-05
 Reference value :  1.80262e-05
 Reference value :  1.80882e-05
 Reference value :  1.82501e-05
 Reference value :  1.82502e-05
 Reference value :  1.82502e-05
 Reference value :  1.82503e-05
 Reference value :  1.82509e-05
 Reference value :  1.82519e-05
 Reference value :  1.82530e-05
 Reference value :  1.82542e-05
 Reference value :  1.82555e-05
 Reference value :  1.82572e-05
 Reference value :  1.82607e-05
 Reference value :  1.82702e-05
 Reference value :  1.82996e-05
 Reference value :  1.83941e-05
 Reference value :  1.85000e-05
 Reference value :  1.85001e-05
 Reference value :  1.85001e-05
 Reference value :  1.85003e-05
 Reference value :  1.85013e-05
 Reference value :  1.85022e-05
 Reference value :  1.85033e-05
 Reference value :  1.85039e-05
 Reference value :  1.85047e-05
 Reference value :  1.85066e-05
 Reference value :  1.85074e-05
 Reference value :  1.85082e-05
 Reference value :  1.85090e-05
 Reference value :  1.85112e-05
 Reference value :  1.85147e-05
 Reference value :  1.85282e-05
 Reference value :  1.85813e-05
 Reference value :  1.87501e-05
 Reference value :  1.87501e-05
 Reference value :  1.87502e-05
 Reference value :  1.87502e-05
 Reference value :  1.87504e-05
 Reference value :  1.87509e-05
 Reference value :  1.87514e-05
 Reference value :  1.87530e-05
 Reference value :  1.87544e-05
 Reference value :  1.87567e-05
 Reference value :  1.87584e-05
 Reference value :  1.87607e-05
 Reference value :  1.87683e-05
 Reference value :  1.88075e-05
 Reference value :  1.90000e-05
 Reference value :  1.90001e-05
 Reference value :  1.90001e-05
 Reference value :  1.90003e-05
 Reference value :  1.90013e-05
 Reference value :  1.90022e-05
 Reference value :  1.90033e-05
 Reference value :  1.90044e-05
 Reference value :  1.90056e-05
 Reference value :  1.90061e-05
 Reference value :  1.90076e-05
 Reference value :  1.90097e-05
 Reference value :  1.90117e-05
 Reference value :  1.90137e-05
 Reference value :  1.90165e-05
 Reference value :  1.90197e-05
 Reference value :  1.90323e-05
 Reference value :  1.91244e-05
 Reference value :  1.92501e-05
 Reference value :  1.92502e-05
 Reference value :  1.92504e-05
 Reference value :  1.92514e-05
 Reference value :  1.92530e-05
 Reference value :  1.92544e-05
 Reference value :  1.92566e-05
 Reference value :  1.92653e-05
 Reference value :  1.94043e-05
 Reference value :  1.95018e-05
 Reference value :  1.95071e-05
 Reference value :  1.95103e-05
 Reference value :  1.95134e-05
 Reference value :  1.95284e-05
 Reference value :  1.96327e-05
 Reference value :  1.97501e-05
 Reference value :  1.97502e-05
 Reference value :  1.97503e-05
 Reference value :  1.97507e-05
 Reference value :  1.97514e-05
 Reference value :  1.97524e-05
 Reference value :  1.97542e-05
 Reference value :  1.97555e-05
 Reference value :  1.97571e-05
 Reference value :  1.97603e-05
 Reference value :  1.97731e-05
 Reference value :  1.98649e-05
 Reference value :  2.00000e-05
 Reference value :  2.00001e-05
 Reference value :  2.00002e-05
 Reference value :  2.00013e-05
 Reference value :  2.00022e-05
 Reference value :  2.00033e-05
 Reference value :  2.00044e-05
 Reference value :  2.00056e-05
 Reference value :  2.00067e-05
 Reference value :  2.00097e-05
 Reference value :  2.00118e-05
 Reference value :  2.00137e-05
 Reference value :  2.00155e-05
 Reference value :  2.00175e-05
 Reference value :  2.00196e-05
 Reference value :  2.00231e-05
 Reference value :  2.00575e-05
 Reference value :  2.01394e-05
 Reference value :  2.02501e-05
 Reference value :  2.02502e-05
 Reference value :  2.02504e-05
 Reference value :  2.02514e-05
 Reference value :  2.02530e-05
 Reference value :  2.02544e-05
 Reference value :  2.02566e-05
 Reference value :  2.02653e-05
 Reference value :  2.03391e-05
 Reference value :  2.05018e-05
 Reference value :  2.05072e-05
 Reference value :  2.05104e-05
 Reference value :  2.05137e-05
 Reference value :  2.05226e-05
 Reference value :  2.05939e-05
 Reference value :  2.07501e-05
 Reference value :  2.07502e-05
 Reference value :  2.07507e-05
 Reference value :  2.07519e-05
 Reference value :  2.07536e-05
 Reference value :  2.07548e-05
 Reference value :  2.07562e-05
 Reference value :  2.07580e-05
 Reference value :  2.07619e-05
 Reference value :  2.07732e-05
 Reference value :  2.08268e-05
 Reference value :  2.10000e-05
 Reference value :  2.10000e-05
 Reference value :  2.10001e-05
 Reference value :  2.10002e-05
 Reference value :  2.10003e-05
 Reference value :  2.10008e-05
 Reference value :  2.10013e-05
 Reference value :  2.10022e-05
 Reference value :  2.10033e-05
 Reference value :  2.10044e-05
 Reference value :  2.10056e-05
 Reference value :  2.10067e-05
 Reference value :  2.10084e-05
 Reference value :  2.10107e-05
 Reference value :  2.10129e-05
 Reference value :  2.10145e-05
 Reference value :  2.10155e-05
 Reference value :  2.10175e-05
 Reference value :  2.10185e-05
 Reference value :  2.10213e-05
 Reference value :  2.10322e-05
 Reference value :  2.10494e-05
 Reference value :  2.10669e-05
 Reference value :  2.10747e-05
 Reference value :  2.11050e-05
 Reference value :  2.11693e-05
 Reference value :  2.12501e-05
 Reference value :  2.12502e-05
 Reference value :  2.12503e-05
 Reference value :  2.12507e-05
 Reference value :  2.12514e-05
 Reference value :  2.12538e-05
 Reference value :  2.12557e-05
 Reference value :  2.12591e-05
 Reference value :  2.13042e-05
 Reference value :  2.15000e-05
 Reference value :  2.15001e-05
 Reference value :  2.15013e-05
 Reference value :  2.15039e-05
 Reference value :  2.15073e-05
 Reference value :  2.15090e-05
 Reference value :  2.15124e-05
 Reference value :  2.15289e-05
 Reference value :  2.16599e-05
 Reference value :  2.17501e-05
 Reference value :  2.17502e-05
 Reference value :  2.17504e-05
 Reference value :  2.17514e-05
 Reference value :  2.17530e-05
 Reference value :  2.17544e-05
 Reference value :  2.17567e-05
 Reference value :  2.17584e-05
 Reference value :  2.17621e-05
 Reference value :  2.17873e-05
 Reference value :  2.20000e-05
 Reference value :  2.20013e-05
 Reference value :  2.20051e-05
 Reference value :  2.20073e-05
 Reference value :  2.20094e-05
 Reference value :  2.20103e-05
 Reference value :  2.20122e-05
 Reference value :  2.20132e-05
 Reference value :  2.20140e-05
 Reference value :  2.20157e-05
 Reference value :  2.20166e-05
 Reference value :  2.20186e-05
 Reference value :  2.20231e-05
 Reference value :  2.20390e-05
 Reference value :  2.20542e-05
 Reference value :  2.21015e-05
 Reference value :  2.21700e-05
 Reference value :  2.22501e-05
 Reference value :  2.22501e-05
 Reference value :  2.22502e-05
 Reference value :  2.22504e-05
 Reference value :  2.22514e-05
 Reference value :  2.22530e-05
 Reference value :  2.22543e-05
 Reference value :  2.22566e-05
 Reference value :  2.22613e-05
 Reference value :  2.22830e-05
 Reference value :  2.23979e-05
 Reference value :  2.25000e-05
 Reference value :  2.25001e-05
 Reference value :  2.25002e-05
 Reference value :  2.25008e-05
 Reference value :  2.25018e-05
 Reference value :  2.25026e-05
 Reference value :  2.25039e-05
 Reference value :  2.25055e-05
 Reference value :  2.25073e-05
 Reference value :  2.25090e-05
 Reference value :  2.25124e-05
 Reference value :  2.25851e-05
 Reference value :  2.27501e-05
 Reference value :  2.27502e-05
 Reference value :  2.27503e-05
 Reference value :  2.27509e-05
 Reference value :  2.27518e-05
 Reference value :  2.27530e-05
 Reference value :  2.27544e-05
 Reference value :  2.27558e-05
 Reference value :  2.27576e-05
 Reference value :  2.27593e-05
 Reference value :  2.27648e-05
 Reference value :  2.28076e-05
 Reference value :  2.30013e-05
 Reference value :  2.30051e-05
 Reference value :  2.30072e-05
 Reference value :  2.30103e-05
 Reference value :  2.30122e-05
 Reference value :  2.30140e-05
 Reference value :  2.30158e-05
 Reference value :  2.30178e-05
 Reference value :  2.30199e-05
 Reference value :  2.30232e-05
 Reference value :  2.30298e-05
 Reference value :  2.30491e-05
 Reference value :  2.31720e-05
 Reference value :  2.32501e-05
 Reference value :  2.32502e-05
 Reference value :  2.32503e-05
 Reference value :  2.32509e-05
 Reference value :  2.32518e-05
 Reference value :  2.32537e-05
 Reference value :  2.32550e-05
 Reference value :  2.32575e-05
 Reference value :  2.32650e-05
 Reference value :  2.33377e-05
 Reference value :  2.35000e-05
 Reference value :  2.35001e-05
 Reference value :  2.35001e-05
 Reference value :  2.35003e-05
 Reference value :  2.35013e-05
 Reference value :  2.35022e-05
 Reference value :  2.35039e-05
 Reference value :  2.35055e-05
 Reference value :  2.35073e-05
 Reference value :  2.35090e-05
 Reference value :  2.35112e-05
 Reference value :  2.35289e-05
 Reference value :  2.37501e-05
 Reference value :  2.37502e-05
 Reference value :  2.37503e-05
 Reference value :  2.37507e-05
 Reference value :  2.37514e-05
 Reference value :  2.37530e-05
 Reference value :  2.37544e-05
 Reference value :  2.37567e-05
 Reference value :  2.37584e-05
 Reference value :  2.37621e-05
 Reference value :  2.37873e-05
 Reference value :  2.40000e-05
 Reference value :  2.40001e-05
 Reference value :  2.40001e-05
 Reference value :  2.40003e-05
 Reference value :  2.40013e-05
 Reference value :  2.40022e-05
 Reference value :  2.40033e-05
 Reference value :  2.40044e-05
 Reference value :  2.40056e-05
 Reference value :  2.40061e-05
 Reference value :  2.40076e-05
 Reference value :  2.40097e-05
 Reference value :  2.40107e-05
 Reference value :  2.40129e-05
 Reference value :  2.40145e-05
 Reference value :  2.40165e-05
 Reference value :  2.40188e-05
 Reference value :  2.40200e-05
 Reference value :  2.40270e-05
 Reference value :  2.40488e-05
 Reference value :  2.41576e-05
 Reference value :  2.42501e-05
 Reference value :  2.42502e-05
 Reference value :  2.42503e-05
 Reference value :  2.42509e-05
 Reference value :  2.42518e-05
 Reference value :  2.42537e-05
 Reference value :  2.42550e-05
 Reference value :  2.42566e-05
 Reference value :  2.42614e-05
 Reference value :  2.42836e-05
 Reference value :  2.43390e-05
 Reference value :  2.45000e-05
 Reference value :  2.45001e-05
 Reference value :  2.45001e-05
 Reference value :  2.45002e-05
 Reference value :  2.45005e-05
 Reference value :  2.45013e-05
 Reference value :  2.45022e-05
 Reference value :  2.45033e-05
 Reference value :  2.45047e-05
 Reference value :  2.45066e-05
 Reference value :  2.45073e-05
 Reference value :  2.45090e-05
 Reference value :  2.45112e-05
 Reference value :  2.45195e-05
 Reference value :  2.45852e-05
 Reference value :  2.47501e-05
 Reference value :  2.47502e-05
 Reference value :  2.47503e-05
 Reference value :  2.47504e-05
 Reference value :  2.47509e-05
 Reference value :  2.47514e-05
 Reference value :  2.47523e-05
 Reference value :  2.47538e-05
 Reference value :  2.47544e-05
 Reference value :  2.47558e-05
 Reference value :  2.47576e-05
 Reference value :  2.47593e-05
 Reference value :  2.47648e-05
 Reference value :  2.47871e-05
 Reference value :  2.49219e-05
 Reference value :  2.50000e-05
 Reference value :  2.50001e-05
 Reference value :  2.50002e-05
 Reference value :  2.50008e-05
 Reference value :  2.50018e-05
 Reference value :  2.50027e-05
 Reference value :  2.50039e-05
 Reference value :  2.50050e-05
 Reference value :  2.50056e-05
 Reference value :  2.50067e-05
 Reference value :  2.50093e-05
 Reference value :  2.50108e-05
 Reference value :  2.50150e-05
 Reference value :  2.50168e-05
 Reference value :  2.50314e-05
 Reference value :  2.51056e-05
 Reference value :  2.51621e-05
 Reference value :  2.51838e-05
 Reference value :  2.52501e-05
 Reference value :  2.52502e-05
 Reference value :  2.52503e-05
 Reference value :  2.52510e-05
 Reference value :  2.52519e-05
 Reference value :  2.52539e-05
 Reference value :  2.52579e-05
 Reference value :  2.52806e-05
 Reference value :  2.53255e-05
 Reference value :  2.55000e-05
 Reference value :  2.55000e-05
 Reference value :  2.55000e-05
 Reference value :  2.55000e-05
 Reference value :  2.55000e-05
 Reference value :  2.55001e-05
 Reference value :  2.55001e-05
 Reference value :  2.55002e-05
 Reference value :  2.55008e-05
 Reference value :  2.55017e-05
 Reference value :  2.55027e-05
 Reference value :  2.55047e-05
 Reference value :  2.55054e-05
 Reference value :  2.55068e-05
 Reference value :  2.55109e-05
 Reference value :  2.55208e-05
 Reference value :  2.55275e-05
 Reference value :  2.55321e-05
 Reference value :  2.55409e-05
 Reference value :  2.55480e-05
 Reference value :  2.55507e-05
 Reference value :  2.55553e-05
 Reference value :  2.55578e-05
 Reference value :  2.55640e-05
 Reference value :  2.55744e-05
 Reference value :  2.55932e-05
 Reference value :  2.57475e-05
 Reference value :  2.57501e-05
 Reference value :  2.57502e-05
 Reference value :  2.57503e-05
 Reference value :  2.57509e-05
 Reference value :  2.57519e-05
 Reference value :  2.57537e-05
 Reference value :  2.57551e-05
 Reference value :  2.57578e-05
 Reference value :  2.57728e-05
 Reference value :  2.58383e-05
 Reference value :  2.60000e-05
 Reference value :  2.60001e-05
 Reference value :  2.60002e-05
 Reference value :  2.60003e-05
 Reference value :  2.60008e-05
 Reference value :  2.60013e-05
 Reference value :  2.60022e-05
 Reference value :  2.60033e-05
 Reference value :  2.60048e-05
 Reference value :  2.60067e-05
 Reference value :  2.60080e-05
 Reference value :  2.60107e-05
 Reference value :  2.60137e-05
 Reference value :  2.60151e-05
 Reference value :  2.60192e-05
 Reference value :  2.60310e-05
 Reference value :  2.61186e-05
 Reference value :  2.62501e-05
 Reference value :  2.62502e-05
 Reference value :  2.62503e-05
 Reference value :  2.62507e-05
 Reference value :  2.62514e-05
 Reference value :  2.62530e-05
 Reference value :  2.62544e-05
 Reference value :  2.62567e-05
 Reference value :  2.62593e-05
 Reference value :  2.62620e-05
 Reference value :  2.62714e-05
 Reference value :  2.62999e-05
 Reference value :  2.64045e-05
 Reference value :  2.65018e-05
 Reference value :  2.65053e-05
 Reference value :  2.65071e-05
 Reference value :  2.65102e-05
 Reference value :  2.65113e-05
 Reference value :  2.65137e-05
 Reference value :  2.65159e-05
 Reference value :  2.65170e-05
 Reference value :  2.65194e-05
 Reference value :  2.65261e-05
 Reference value :  2.65873e-05
 Reference value :  2.67501e-05
 Reference value :  2.67502e-05
 Reference value :  2.67502e-05
 Reference value :  2.67504e-05
 Reference value :  2.67514e-05
 Reference value :  2.67524e-05
 Reference value :  2.67537e-05
 Reference value :  2.67542e-05
 Reference value :  2.67554e-05
 Reference value :  2.67563e-05
 Reference value :  2.67585e-05
 Reference value :  2.67635e-05
 Reference value :  2.67793e-05
 Reference value :  2.68897e-05
 Reference value :  2.70000e-05
 Reference value :  2.70000e-05
 Reference value :  2.70001e-05
 Reference value :  2.70002e-05
 Reference value :  2.70003e-05
 Reference value :  2.70008e-05
 Reference value :  2.70013e-05
 Reference value :  2.70022e-05
 Reference value :  2.70039e-05
 Reference value :  2.70056e-05
 Reference value :  2.70074e-05
 Reference value :  2.70090e-05
 Reference value :  2.70112e-05
 Reference value :  2.70195e-05
 Reference value :  2.70827e-05
 Reference value :  2.72501e-05
 Reference value :  2.72502e-05
 Reference value :  2.72503e-05
 Reference value :  2.72509e-05
 Reference value :  2.72524e-05
 Reference value :  2.72544e-05
 Reference value :  2.72567e-05
 Reference value :  2.72593e-05
 Reference value :  2.72683e-05
 Reference value :  2.73482e-05
 Reference value :  2.75000e-05
 Reference value :  2.75001e-05
 Reference value :  2.75003e-05
 Reference value :  2.75013e-05
 Reference value :  2.75022e-05
 Reference value :  2.75033e-05
 Reference value :  2.75044e-05
 Reference value :  2.75056e-05
 Reference value :  2.75067e-05
 Reference value :  2.75097e-05
 Reference value :  2.75107e-05
 Reference value :  2.75117e-05
 Reference value :  2.75128e-05
 Reference value :  2.75137e-05
 Reference value :  2.75155e-05
 Reference value :  2.75175e-05
 Reference value :  2.75197e-05
 Reference value :  2.75267e-05
 Reference value :  2.75837e-05
 Reference value :  2.77501e-05
 Reference value :  2.77502e-05
 Reference value :  2.77503e-05
 Reference value :  2.77507e-05
 Reference value :  2.77514e-05
 Reference value :  2.77524e-05
 Reference value :  2.77538e-05
 Reference value :  2.77544e-05
 Reference value :  2.77557e-05
 Reference value :  2.77576e-05
 Reference value :  2.77614e-05
 Reference value :  2.77723e-05
 Reference value :  2.78391e-05
 Reference value :  2.80018e-05
 Reference value :  2.80053e-05
 Reference value :  2.80071e-05
 Reference value :  2.80103e-05
 Reference value :  2.80134e-05
 Reference value :  2.80284e-05
 Reference value :  2.80851e-05
 Reference value :  2.82501e-05
 Reference value :  2.82502e-05
 Reference value :  2.82503e-05
 Reference value :  2.82509e-05
 Reference value :  2.82524e-05
 Reference value :  2.82542e-05
 Reference value :  2.82563e-05
 Reference value :  2.82581e-05
 Reference value :  2.82620e-05
 Reference value :  2.82977e-05
 Reference value :  2.85000e-05
 Reference value :  2.85001e-05
 Reference value :  2.85002e-05
 Reference value :  2.85008e-05
 Reference value :  2.85018e-05
 Reference value :  2.85022e-05
 Reference value :  2.85033e-05
 Reference value :  2.85044e-05
 Reference value :  2.85056e-05
 Reference value :  2.85067e-05
 Reference value :  2.85097e-05
 Reference value :  2.85118e-05
 Reference value :  2.85137e-05
 Reference value :  2.85165e-05
 Reference value :  2.85196e-05
 Reference value :  2.85231e-05
 Reference value :  2.85412e-05
 Reference value :  2.86105e-05
 Reference value :  2.86716e-05
 Reference value :  2.87501e-05
 Reference value :  2.87502e-05
 Reference value :  2.87503e-05
 Reference value :  2.87514e-05
 Reference value :  2.87530e-05
 Reference value :  2.87544e-05
 Reference value :  2.87566e-05
 Reference value :  2.87614e-05
 Reference value :  2.88042e-05
 Reference value :  2.90000e-05
 Reference value :  2.90018e-05
 Reference value :  2.90072e-05
 Reference value :  2.90104e-05
 Reference value :  2.90137e-05
 Reference value :  2.90226e-05
 Reference value :  2.90939e-05
 Reference value :  2.92501e-05
 Reference value :  2.92502e-05
 Reference value :  2.92503e-05
 Reference value :  2.92509e-05
 Reference value :  2.92519e-05
 Reference value :  2.92536e-05
 Reference value :  2.92555e-05
 Reference value :  2.92571e-05
 Reference value :  2.92592e-05
 Reference value :  2.92637e-05
 Reference value :  2.92994e-05
 Reference value :  2.95000e-05
 Reference value :  2.95001e-05
 Reference value :  2.95001e-05
 Reference value :  2.95003e-05
 Reference value :  2.95013e-05
 Reference value :  2.95022e-05
 Reference value :  2.95033e-05
 Reference value :  2.95044e-05
 Reference value :  2.95056e-05
 Reference value :  2.95067e-05
 Reference value :  2.95097e-05
 Reference value :  2.95107e-05
 Reference value :  2.95129e-05
 Reference value :  2.95145e-05
 Reference value :  2.95164e-05
 Reference value :  2.95185e-05
 Reference value :  2.95212e-05
 Reference value :  2.95318e-05
 Reference value :  2.95571e-05
 Reference value :  2.95750e-05
 Reference value :  2.95906e-05
 Reference value :  2.96323e-05
 Reference value :  2.97501e-05
 Reference value :  2.97501e-05
 Reference value :  2.97502e-05
 Reference value :  2.97503e-05
 Reference value :  2.97507e-05
 Reference value :  2.97514e-05
 Reference value :  2.97524e-05
 Reference value :  2.97538e-05
 Reference value :  2.97550e-05
 Reference value :  2.97576e-05
 Reference value :  2.97653e-05
 Reference value :  2.98391e-05
 Reference value :  3.00000e-05
 Reference value :  3.00001e-05
 Reference value :  3.00003e-05
 Reference value :  3.00013e-05
 Reference value :  3.00022e-05
 Reference value :  3.00039e-05
 Reference value :  3.00055e-05
 Reference value :  3.00073e-05
 Reference value :  3.00090e-05
 Reference value :  3.00112e-05
 Reference value :  3.00195e-05
 Reference value :  3.00851e-05
 Reference value :  3.02501e-05
 Reference value :  3.02502e-05
 Reference value :  3.02503e-05
 Reference value :  3.02509e-05
 Reference value :  3.02518e-05
 Reference value :  3.02538e-05
 Reference value :  3.02550e-05
 Reference value :  3.02567e-05
 Reference value :  3.02584e-05
 Reference value :  3.02621e-05
 Reference value :  3.02873e-05
 Reference value :  3.05000e-05
 Reference value :  3.05013e-05
 Reference value :  3.05051e-05
 Reference value :  3.05073e-05
 Reference value :  3.05103e-05
 Reference value :  3.05122e-05
 Reference value :  3.05140e-05
 Reference value :  3.05157e-05
 Reference value :  3.05176e-05
 Reference value :  3.05215e-05
 Reference value :  3.05313e-05
 Reference value :  3.05540e-05
 Reference value :  3.06010e-05
 Reference value :  3.06569e-05
 Reference value :  3.07501e-05
 Reference value :  3.07502e-05
 Reference value :  3.07502e-05
 Reference value :  3.07507e-05
 Reference value :  3.07514e-05
 Reference value :  3.07524e-05
 Reference value :  3.07537e-05
 Reference value :  3.07550e-05
 Reference value :  3.07575e-05
 Reference value :  3.07720e-05
 Reference value :  3.08979e-05
 Reference value :  3.10000e-05
 Reference value :  3.10001e-05
 Reference value :  3.10005e-05
 Reference value :  3.10013e-05
 Reference value :  3.10022e-05
 Reference value :  3.10039e-05
 Reference value :  3.10055e-05
 Reference value :  3.10073e-05
 Reference value :  3.10090e-05
 Reference value :  3.10149e-05
 Reference value :  3.10850e-05
 Reference value :  3.12501e-05
 Reference value :  3.12502e-05
 Reference value :  3.12507e-05
 Reference value :  3.12518e-05
 Reference value :  3.12538e-05
 Reference value :  3.12550e-05
 Reference value :  3.12584e-05
 Reference value :  3.12648e-05
 Reference value :  3.13076e-05
 Reference value :  3.15000e-05
 Reference value :  3.15001e-05
 Reference value :  3.15003e-05
 Reference value :  3.15013e-05
 Reference value :  3.15027e-05
 Reference value :  3.15044e-05
 Reference value :  3.15056e-05
 Reference value :  3.15076e-05
 Reference value :  3.15107e-05
 Reference value :  3.15137e-05
 Reference value :  3.15176e-05
 Reference value :  3.15220e-05
 Reference value :  3.15308e-05
 Reference value :  3.15674e-05
 Reference value :  3.17009e-05
 Reference value :  3.17501e-05
 Reference value :  3.17502e-05
 Reference value :  3.17503e-05
 Reference value :  3.17507e-05
 Reference value :  3.17514e-05
 Reference value :  3.17524e-05
 Reference value :  3.17538e-05
 Reference value :  3.17550e-05
 Reference value :  3.17566e-05
 Reference value :  3.17591e-05
 Reference value :  3.17653e-05
 Reference value :  3.17836e-05
 Reference value :  3.18390e-05
 Reference value :  3.20000e-05
 Reference value :  3.20001e-05
 Reference value :  3.20002e-05
 Reference value :  3.20003e-05
 Reference value :  3.20013e-05
 Reference value :  3.20022e-05
 Reference value :  3.20039e-05
 Reference value :  3.20055e-05
 Reference value :  3.20073e-05
 Reference value :  3.20090e-05
 Reference value :  3.20124e-05
 Reference value :  3.20477e-05
 Reference value :  3.22501e-05
 Reference value :  3.22501e-05
 Reference value :  3.22502e-05
 Reference value :  3.22503e-05
 Reference value :  3.22504e-05
 Reference value :  3.22509e-05
 Reference value :  3.22514e-05
 Reference value :  3.22524e-05
 Reference value :  3.22538e-05
 Reference value :  3.22544e-05
 Reference value :  3.22558e-05
 Reference value :  3.22576e-05
 Reference value :  3.22584e-05
 Reference value :  3.22607e-05
 Reference value :  3.22683e-05
 Reference value :  3.23072e-05
 Reference value :  3.25000e-05
 Reference value :  3.25001e-05
 Reference value :  3.25001e-05
 Reference value :  3.25003e-05
 Reference value :  3.25008e-05
 Reference value :  3.25013e-05
 Reference value :  3.25022e-05
 Reference value :  3.25033e-05
 Reference value :  3.25044e-05
 Reference value :  3.25056e-05
 Reference value :  3.25061e-05
 Reference value :  3.25084e-05
 Reference value :  3.25107e-05
 Reference value :  3.25129e-05
 Reference value :  3.25145e-05
 Reference value :  3.25176e-05
 Reference value :  3.25220e-05
 Reference value :  3.25368e-05
 Reference value :  3.26684e-05
 Reference value :  3.27501e-05
 Reference value :  3.27502e-05
 Reference value :  3.27503e-05
 Reference value :  3.27507e-05
 Reference value :  3.27514e-05
 Reference value :  3.27530e-05
 Reference value :  3.27544e-05
 Reference value :  3.27557e-05
 Reference value :  3.27576e-05
 Reference value :  3.27614e-05
 Reference value :  3.27836e-05
 Reference value :  3.29038e-05
 Reference value :  3.30000e-05
 Reference value :  3.30001e-05
 Reference value :  3.30002e-05
 Reference value :  3.30005e-05
 Reference value :  3.30013e-05
 Reference value :  3.30022e-05
 Reference value :  3.30033e-05
 Reference value :  3.30047e-05
 Reference value :  3.30066e-05
 Reference value :  3.30073e-05
 Reference value :  3.30090e-05
 Reference value :  3.30124e-05
 Reference value :  3.30477e-05
 Reference value :  3.32501e-05
 Reference value :  3.32502e-05
 Reference value :  3.32503e-05
 Reference value :  3.32509e-05
 Reference value :  3.32518e-05
 Reference value :  3.32530e-05
 Reference value :  3.32544e-05
 Reference value :  3.32558e-05
 Reference value :  3.32576e-05
 Reference value :  3.32593e-05
 Reference value :  3.32648e-05
 Reference value :  3.33070e-05
 Reference value :  3.35013e-05
 Reference value :  3.35054e-05
 Reference value :  3.35077e-05
 Reference value :  3.35099e-05
 Reference value :  3.35117e-05
 Reference value :  3.35143e-05
 Reference value :  3.35153e-05
 Reference value :  3.35172e-05
 Reference value :  3.35242e-05
 Reference value :  3.35516e-05
 Reference value :  3.35626e-05
 Reference value :  3.35692e-05
 Reference value :  3.35985e-05
 Reference value :  3.36813e-05
 Reference value :  3.37501e-05
 Reference value :  3.37502e-05
 Reference value :  3.37504e-05
 Reference value :  3.37514e-05
 Reference value :  3.37530e-05
 Reference value :  3.37555e-05
 Reference value :  3.37591e-05
 Reference value :  3.37788e-05
 Reference value :  3.39755e-05
 Reference value :  3.40000e-05
 Reference value :  3.40000e-05
 Reference value :  3.40000e-05
 Reference value :  3.40000e-05
 Reference value :  3.40001e-05
 Reference value :  3.40001e-05
 Reference value :  3.40002e-05
 Reference value :  3.40008e-05
 Reference value :  3.40017e-05
 Reference value :  3.40022e-05
 Reference value :  3.40033e-05
 Reference value :  3.40048e-05
 Reference value :  3.40054e-05
 Reference value :  3.40068e-05
 Reference value :  3.40109e-05
 Reference value :  3.40275e-05
 Reference value :  3.40321e-05
 Reference value :  3.40408e-05
 Reference value :  3.40490e-05
 Reference value :  3.40514e-05
 Reference value :  3.40567e-05
 Reference value :  3.40620e-05
 Reference value :  3.40775e-05
 Reference value :  3.41107e-05
 Reference value :  3.42501e-05
 Reference value :  3.42502e-05
 Reference value :  3.42503e-05
 Reference value :  3.42507e-05
 Reference value :  3.42514e-05
 Reference value :  3.42530e-05
 Reference value :  3.42544e-05
 Reference value :  3.42567e-05
 Reference value :  3.42618e-05
 Reference value :  3.43044e-05
 Reference value :  3.45000e-05
 Reference value :  3.45001e-05
 Reference value :  3.45003e-05
 Reference value :  3.45013e-05
 Reference value :  3.45022e-05
 Reference value :  3.45039e-05
 Reference value :  3.45067e-05
 Reference value :  3.45093e-05
 Reference value :  3.45137e-05
 Reference value :  3.45151e-05
 Reference value :  3.45192e-05
 Reference value :  3.45309e-05
 Reference value :  3.46186e-05
 Reference value :  3.47501e-05
 Reference value :  3.47502e-05
 Reference value :  3.47504e-05
 Reference value :  3.47509e-05
 Reference value :  3.47518e-05
 Reference value :  3.47530e-05
 Reference value :  3.47544e-05
 Reference value :  3.47558e-05
 Reference value :  3.47576e-05
 Reference value :  3.47604e-05
 Reference value :  3.47867e-05
 Reference value :  3.49041e-05
 Reference value :  3.50001e-05
 Reference value :  3.50002e-05
 Reference value :  3.50008e-05
 Reference value :  3.50018e-05
 Reference value :  3.50027e-05
 Reference value :  3.50039e-05
 Reference value :  3.50050e-05
 Reference value :  3.50061e-05
 Reference value :  3.50084e-05
 Reference value :  3.50107e-05
 Reference value :  3.50128e-05
 Reference value :  3.50145e-05
 Reference value :  3.50165e-05
 Reference value :  3.50197e-05
 Reference value :  3.50324e-05
 Reference value :  3.51990e-05
 Reference value :  3.52502e-05
 Reference value :  3.52503e-05
 Reference value :  3.52507e-05
 Reference value :  3.52514e-05
 Reference value :  3.52530e-05
 Reference value :  3.52544e-05
 Reference value :  3.52557e-05
 Reference value :  3.52591e-05
 Reference value :  3.52836e-05
 Reference value :  3.54044e-05
 Reference value :  3.55000e-05
 Reference value :  3.55001e-05
 Reference value :  3.55002e-05
 Reference value :  3.55008e-05
 Reference value :  3.55018e-05
 Reference value :  3.55026e-05
 Reference value :  3.55039e-05
 Reference value :  3.55055e-05
 Reference value :  3.55073e-05
 Reference value :  3.55090e-05
 Reference value :  3.55124e-05
 Reference value :  3.55476e-05
 Reference value :  3.57501e-05
 Reference value :  3.57502e-05
 Reference value :  3.57503e-05
 Reference value :  3.57509e-05
 Reference value :  3.57518e-05
 Reference value :  3.57530e-05
 Reference value :  3.57544e-05
 Reference value :  3.57558e-05
 Reference value :  3.57576e-05
 Reference value :  3.57593e-05
 Reference value :  3.57621e-05
 Reference value :  3.57752e-05
 Reference value :  3.58481e-05
 Reference value :  3.60013e-05
 Reference value :  3.60052e-05
 Reference value :  3.60075e-05
 Reference value :  3.60105e-05
 Reference value :  3.60125e-05
 Reference value :  3.60144e-05
 Reference value :  3.60161e-05
 Reference value :  3.60182e-05
 Reference value :  3.60225e-05
 Reference value :  3.60405e-05
 Reference value :  3.61240e-05
 Reference value :  3.62501e-05
 Reference value :  3.62501e-05
 Reference value :  3.62502e-05
 Reference value :  3.62503e-05
 Reference value :  3.62507e-05
 Reference value :  3.62514e-05
 Reference value :  3.62524e-05
 Reference value :  3.62543e-05
 Reference value :  3.62556e-05
 Reference value :  3.62590e-05
 Reference value :  3.62831e-05
 Reference value :  3.63983e-05
 Reference value :  3.65000e-05
 Reference value :  3.65001e-05
 Reference value :  3.65002e-05
 Reference value :  3.65008e-05
 Reference value :  3.65018e-05
 Reference value :  3.65026e-05
 Reference value :  3.65039e-05
 Reference value :  3.65055e-05
 Reference value :  3.65074e-05
 Reference value :  3.65090e-05
 Reference value :  3.65124e-05
 Reference value :  3.65471e-05
 Reference value :  3.67501e-05
 Reference value :  3.67502e-05
 Reference value :  3.67503e-05
 Reference value :  3.67509e-05
 Reference value :  3.67518e-05
 Reference value :  3.67530e-05
 Reference value :  3.67544e-05
 Reference value :  3.67558e-05
 Reference value :  3.67576e-05
 Reference value :  3.67593e-05
 Reference value :  3.67648e-05
 Reference value :  3.67874e-05
 Reference value :  3.69254e-05
 Reference value :  3.70000e-05
 Reference value :  3.70001e-05
 Reference value :  3.70002e-05
 Reference value :  3.70008e-05
 Reference value :  3.70018e-05
 Reference value :  3.70027e-05
 Reference value :  3.70039e-05
 Reference value :  3.70044e-05
 Reference value :  3.70056e-05
 Reference value :  3.70067e-05
 Reference value :  3.70084e-05
 Reference value :  3.70107e-05
 Reference value :  3.70137e-05
 Reference value :  3.70165e-05
 Reference value :  3.70197e-05
 Reference value :  3.70267e-05
 Reference value :  3.70812e-05
 Reference value :  3.71393e-05
 Reference value :  3.72320e-05
 Reference value :  3.72502e-05
 Reference value :  3.72503e-05
 Reference value :  3.72507e-05
 Reference value :  3.72514e-05
 Reference value :  3.72530e-05
 Reference value :  3.72544e-05
 Reference value :  3.72566e-05
 Reference value :  3.72614e-05
 Reference value :  3.73042e-05
 Reference value :  3.75000e-05
 Reference value :  3.75001e-05
 Reference value :  3.75002e-05
 Reference value :  3.75005e-05
 Reference value :  3.75013e-05
 Reference value :  3.75022e-05
 Reference value :  3.75039e-05
 Reference value :  3.75055e-05
 Reference value :  3.75073e-05
 Reference value :  3.75090e-05
 Reference value :  3.75112e-05
 Reference value :  3.75195e-05
 Reference value :  3.75851e-05
 Reference value :  3.77501e-05
 Reference value :  3.77502e-05
 Reference value :  3.77503e-05
 Reference value :  3.77504e-05
 Reference value :  3.77514e-05
 Reference value :  3.77524e-05
 Reference value :  3.77538e-05
 Reference value :  3.77544e-05
 Reference value :  3.77567e-05
 Reference value :  3.77584e-05
 Reference value :  3.77621e-05
 Reference value :  3.77874e-05
 Reference value :  3.80000e-05
 Reference value :  3.80001e-05
 Reference value :  3.80001e-05
 Reference value :  3.80003e-05
 Reference value :  3.80013e-05
 Reference value :  3.80022e-05
 Reference value :  3.80039e-05
 Reference value :  3.80056e-05
 Reference value :  3.80084e-05
 Reference value :  3.80117e-05
 Reference value :  3.80145e-05
 Reference value :  3.80185e-05
 Reference value :  3.80265e-05
 Reference value :  3.80579e-05
 Reference value :  3.80838e-05
 Reference value :  3.81315e-05
 Reference value :  3.82501e-05
 Reference value :  3.82502e-05
 Reference value :  3.82503e-05
 Reference value :  3.82509e-05
 Reference value :  3.82518e-05
 Reference value :  3.82538e-05
 Reference value :  3.82550e-05
 Reference value :  3.82576e-05
 Reference value :  3.82723e-05
 Reference value :  3.85000e-05
 Reference value :  3.85018e-05
 Reference value :  3.85072e-05
 Reference value :  3.85105e-05
 Reference value :  3.85137e-05
 Reference value :  3.85226e-05
 Reference value :  3.85605e-05
 Reference value :  3.87501e-05
 Reference value :  3.87502e-05
 Reference value :  3.87509e-05
 Reference value :  3.87530e-05
 Reference value :  3.87542e-05
 Reference value :  3.87562e-05
 Reference value :  3.87580e-05
 Reference value :  3.87637e-05
 Reference value :  3.88270e-05
 Reference value :  3.90001e-05
 Reference value :  3.90002e-05
 Reference value :  3.90005e-05
 Reference value :  3.90013e-05
 Reference value :  3.90022e-05
 Reference value :  3.90039e-05
 Reference value :  3.90050e-05
 Reference value :  3.90061e-05
 Reference value :  3.90084e-05
 Reference value :  3.90107e-05
 Reference value :  3.90137e-05
 Reference value :  3.90165e-05
 Reference value :  3.90188e-05
 Reference value :  3.90220e-05
 Reference value :  3.90347e-05
 Reference value :  3.90501e-05
 Reference value :  3.90743e-05
 Reference value :  3.91532e-05
 Reference value :  3.92130e-05
 Reference value :  3.92501e-05
 Reference value :  3.92502e-05
 Reference value :  3.92503e-05
 Reference value :  3.92507e-05
 Reference value :  3.92514e-05
 Reference value :  3.92524e-05
 Reference value :  3.92538e-05
 Reference value :  3.92550e-05
 Reference value :  3.92576e-05
 Reference value :  3.92653e-05
 Reference value :  3.93042e-05
 Reference value :  3.95000e-05
 Reference value :  3.95000e-05
 Reference value :  3.95001e-05
 Reference value :  3.95001e-05
 Reference value :  3.95002e-05
 Reference value :  3.95008e-05
 Reference value :  3.95013e-05
 Reference value :  3.95022e-05
 Reference value :  3.95033e-05
 Reference value :  3.95039e-05
 Reference value :  3.95055e-05
 Reference value :  3.95073e-05
 Reference value :  3.95090e-05
 Reference value :  3.95124e-05
 Reference value :  3.95289e-05
 Reference value :  3.96602e-05
 Reference value :  3.97501e-05
 Reference value :  3.97502e-05
 Reference value :  3.97503e-05
 Reference value :  3.97507e-05
 Reference value :  3.97514e-05
 Reference value :  3.97524e-05
 Reference value :  3.97538e-05
 Reference value :  3.97550e-05
 Reference value :  3.97567e-05
 Reference value :  3.97584e-05
 Reference value :  3.97621e-05
 Reference value :  3.97873e-05
 Reference value :  3.99234e-05
 Reference value :  4.00000e-05
 Reference value :  4.00001e-05
 Reference value :  4.00002e-05
 Reference value :  4.00008e-05
 Reference value :  4.00018e-05
 Reference value :  4.00022e-05
 Reference value :  4.00033e-05
 Reference value :  4.00044e-05
 Reference value :  4.00056e-05
 Reference value :  4.00061e-05
 Reference value :  4.00084e-05
 Reference value :  4.00107e-05
 Reference value :  4.00117e-05
 Reference value :  4.00129e-05
 Reference value :  4.00137e-05
 Reference value :  4.00165e-05
 Reference value :  4.00200e-05
 Reference value :  4.00276e-05
 Reference value :  4.00386e-05
 Reference value :  4.00960e-05
 Reference value :  4.02501e-05
 Reference value :  4.02502e-05
 Reference value :  4.02502e-05
 Reference value :  4.02507e-05
 Reference value :  4.02518e-05
 Reference value :  4.02538e-05
 Reference value :  4.02550e-05
 Reference value :  4.02591e-05
 Reference value :  4.02836e-05
 Reference value :  4.05000e-05
 Reference value :  4.05001e-05
 Reference value :  4.05005e-05
 Reference value :  4.05022e-05
 Reference value :  4.05039e-05
 Reference value :  4.05055e-05
 Reference value :  4.05073e-05
 Reference value :  4.05090e-05
 Reference value :  4.05112e-05
 Reference value :  4.05195e-05
 Reference value :  4.05851e-05
 Reference value :  4.07501e-05
 Reference value :  4.07502e-05
 Reference value :  4.07507e-05
 Reference value :  4.07514e-05
 Reference value :  4.07530e-05
 Reference value :  4.07544e-05
 Reference value :  4.07567e-05
 Reference value :  4.07593e-05
 Reference value :  4.07752e-05
 Reference value :  4.10000e-05
 Reference value :  4.10013e-05
 Reference value :  4.10051e-05
 Reference value :  4.10084e-05
 Reference value :  4.10114e-05
 Reference value :  4.10134e-05
 Reference value :  4.10157e-05
 Reference value :  4.10187e-05
 Reference value :  4.10229e-05
 Reference value :  4.10754e-05
 Reference value :  4.12501e-05
 Reference value :  4.12502e-05
 Reference value :  4.12509e-05
 Reference value :  4.12524e-05
 Reference value :  4.12543e-05
 Reference value :  4.12590e-05
 Reference value :  4.13378e-05
 Reference value :  4.15000e-05
 Reference value :  4.15001e-05
 Reference value :  4.15001e-05
 Reference value :  4.15003e-05
 Reference value :  4.15013e-05
 Reference value :  4.15022e-05
 Reference value :  4.15033e-05
 Reference value :  4.15047e-05
 Reference value :  4.15073e-05
 Reference value :  4.15100e-05
 Reference value :  4.15471e-05
 Reference value :  4.17501e-05
 Reference value :  4.17502e-05
 Reference value :  4.17503e-05
 Reference value :  4.17509e-05
 Reference value :  4.17518e-05
 Reference value :  4.17538e-05
 Reference value :  4.17550e-05
 Reference value :  4.17567e-05
 Reference value :  4.17584e-05
 Reference value :  4.17621e-05
 Reference value :  4.17752e-05
 Reference value :  4.18234e-05
 Reference value :  4.18345e-05
 Reference value :  4.18442e-05
 Reference value :  4.18653e-05
 Reference value :  4.18964e-05
 Reference value :  4.19480e-05
 Reference value :  4.20000e-05
 Reference value :  4.20000e-05
 Reference value :  4.20001e-05
 Reference value :  4.20001e-05
 Reference value :  4.20003e-05
 Reference value :  4.20013e-05
 Reference value :  4.20022e-05
 Reference value :  4.20033e-05
 Reference value :  4.20044e-05
 Reference value :  4.20056e-05
 Reference value :  4.20075e-05
 Reference value :  4.20102e-05
 Reference value :  4.20791e-05
 Reference value :  4.22501e-05
 Reference value :  4.22503e-05
 Reference value :  4.22514e-05
 Reference value :  4.22539e-05
 Reference value :  4.22618e-05
 Reference value :  4.22806e-05
 Reference value :  4.25000e-05
 Reference value :  4.25000e-05
 Reference value :  4.25001e-05
 Reference value :  4.25001e-05
 Reference value :  4.25004e-05
 Reference value :  4.25017e-05
 Reference value :  4.25027e-05
 Reference value :  4.25054e-05
 Reference value :  4.25092e-05
 Reference value :  4.25269e-05
 Reference value :  4.25314e-05
 Reference value :  4.25387e-05
 Reference value :  4.25403e-05
 Reference value :  4.25434e-05
 Reference value :  4.25467e-05
 Reference value :  4.25531e-05
 Reference value :  4.25743e-05
 Reference value :  4.27501e-05
 Reference value :  4.27502e-05
 Reference value :  4.27509e-05
 Reference value :  4.27530e-05
 Reference value :  4.27557e-05
 Reference value :  4.27659e-05
 Reference value :  4.30000e-05
 Reference value :  4.30001e-05
 Reference value :  4.30008e-05
 Reference value :  4.30022e-05
 Reference value :  4.30048e-05
 Reference value :  4.30080e-05
 Reference value :  4.30121e-05
 Reference value :  4.30151e-05
 Reference value :  4.30251e-05
 Reference value :  4.31997e-05
 Reference value :  4.32502e-05
 Reference value :  4.32507e-05
 Reference value :  4.32514e-05
 Reference value :  4.32530e-05
 Reference value :  4.32544e-05
 Reference value :  4.32566e-05
 Reference value :  4.32591e-05
 Reference value :  4.32667e-05
 Reference value :  4.32858e-05
 Reference value :  4.34932e-05
 Reference value :  4.35001e-05
 Reference value :  4.35005e-05
 Reference value :  4.35009e-05
 Reference value :  4.35016e-05
 Reference value :  4.35025e-05
 Reference value :  4.35037e-05
 Reference value :  4.35042e-05
 Reference value :  4.35055e-05
 Reference value :  4.35068e-05
 Reference value :  4.35086e-05
 Reference value :  4.35108e-05
 Reference value :  4.35130e-05
 Reference value :  4.35146e-05
 Reference value :  4.35166e-05
 Reference value :  4.35188e-05
 Reference value :  4.35241e-05
 Reference value :  4.35788e-05
 Reference value :  4.37501e-05
 Reference value :  4.37502e-05
 Reference value :  4.37503e-05
 Reference value :  4.37509e-05
 Reference value :  4.37518e-05
 Reference value :  4.37538e-05
 Reference value :  4.37550e-05
 Reference value :  4.37591e-05
 Reference value :  4.37837e-05
 Reference value :  4.40000e-05
 Reference value :  4.40001e-05
 Reference value :  4.40001e-05
 Reference value :  4.40003e-05
 Reference value :  4.40013e-05
 Reference value :  4.40022e-05
 Reference value :  4.40039e-05
 Reference value :  4.40055e-05
 Reference value :  4.40073e-05
 Reference value :  4.40090e-05
 Reference value :  4.40148e-05
 Reference value :  4.40476e-05
 Reference value :  4.42501e-05
 Reference value :  4.42501e-05
 Reference value :  4.42502e-05
 Reference value :  4.42503e-05
 Reference value :  4.42504e-05
 Reference value :  4.42509e-05
 Reference value :  4.42518e-05
 Reference value :  4.42538e-05
 Reference value :  4.42550e-05
 Reference value :  4.42567e-05
 Reference value :  4.42584e-05
 Reference value :  4.42621e-05
 Reference value :  4.42874e-05
 Reference value :  4.45000e-05
 Reference value :  4.45001e-05
 Reference value :  4.45001e-05
 Reference value :  4.45003e-05
 Reference value :  4.45013e-05
 Reference value :  4.45022e-05
 Reference value :  4.45033e-05
 Reference value :  4.45044e-05
 Reference value :  4.45056e-05
 Reference value :  4.45067e-05
 Reference value :  4.45097e-05
 Reference value :  4.45117e-05
 Reference value :  4.45137e-05
 Reference value :  4.45155e-05
 Reference value :  4.45185e-05
 Reference value :  4.45267e-05
 Reference value :  4.45837e-05
 Reference value :  4.47501e-05
 Reference value :  4.47502e-05
 Reference value :  4.47503e-05
 Reference value :  4.47509e-05
 Reference value :  4.47518e-05
 Reference value :  4.47530e-05
 Reference value :  4.47544e-05
 Reference value :  4.47566e-05
 Reference value :  4.47653e-05
 Reference value :  4.48391e-05
 Reference value :  4.50000e-05
 Reference value :  4.50001e-05
 Reference value :  4.50002e-05
 Reference value :  4.50008e-05
 Reference value :  4.50018e-05
 Reference value :  4.50033e-05
 Reference value :  4.50047e-05
 Reference value :  4.50073e-05
 Reference value :  4.50090e-05
 Reference value :  4.50195e-05
 Reference value :  4.52501e-05
 Reference value :  4.52502e-05
 Reference value :  4.52503e-05
 Reference value :  4.52514e-05
 Reference value :  4.52530e-05
 Reference value :  4.52544e-05
 Reference value :  4.52567e-05
 Reference value :  4.52584e-05
 Reference value :  4.52621e-05
 Reference value :  4.52874e-05
 Reference value :  4.55000e-05
 Reference value :  4.55001e-05
 Reference value :  4.55001e-05
 Reference value :  4.55002e-05
 Reference value :  4.55005e-05
 Reference value :  4.55013e-05
 Reference value :  4.55022e-05
 Reference value :  4.55033e-05
 Reference value :  4.55044e-05
 Reference value :  4.55056e-05
 Reference value :  4.55067e-05
 Reference value :  4.55084e-05
 Reference value :  4.55107e-05
 Reference value :  4.55117e-05
 Reference value :  4.55137e-05
 Reference value :  4.55155e-05
 Reference value :  4.55185e-05
 Reference value :  4.55231e-05
 Reference value :  4.55575e-05
 Reference value :  4.56105e-05
 Reference value :  4.56716e-05
 Reference value :  4.57501e-05
 Reference value :  4.57502e-05
 Reference value :  4.57503e-05
 Reference value :  4.57509e-05
 Reference value :  4.57518e-05
 Reference value :  4.57538e-05
 Reference value :  4.57550e-05
 Reference value :  4.57576e-05
 Reference value :  4.57653e-05
 Reference value :  4.58042e-05
 Reference value :  4.60000e-05
 Reference value :  4.60018e-05
 Reference value :  4.60072e-05
 Reference value :  4.60104e-05
 Reference value :  4.60137e-05
 Reference value :  4.60296e-05
 Reference value :  4.61494e-05
 Reference value :  4.62502e-05
 Reference value :  4.62502e-05
 Reference value :  4.62504e-05
 Reference value :  4.62514e-05
 Reference value :  4.62524e-05
 Reference value :  4.62542e-05
 Reference value :  4.62562e-05
 Reference value :  4.62580e-05
 Reference value :  4.62619e-05
 Reference value :  4.62822e-05
 Reference value :  4.64561e-05
 Reference value :  4.65000e-05
 Reference value :  4.65001e-05
 Reference value :  4.65002e-05
 Reference value :  4.65008e-05
 Reference value :  4.65013e-05
 Reference value :  4.65022e-05
 Reference value :  4.65033e-05
 Reference value :  4.65044e-05
 Reference value :  4.65056e-05
 Reference value :  4.65061e-05
 Reference value :  4.65076e-05
 Reference value :  4.65107e-05
 Reference value :  4.65129e-05
 Reference value :  4.65145e-05
 Reference value :  4.65165e-05
 Reference value :  4.65185e-05
 Reference value :  4.65213e-05
 Reference value :  4.65322e-05
 Reference value :  4.65500e-05
 Reference value :  4.65595e-05
 Reference value :  4.65790e-05
 Reference value :  4.65947e-05
 Reference value :  4.66131e-05
 Reference value :  4.67022e-05
 Reference value :  4.67501e-05
 Reference value :  4.67502e-05
 Reference value :  4.67503e-05
 Reference value :  4.67507e-05
 Reference value :  4.67514e-05
 Reference value :  4.67524e-05
 Reference value :  4.67538e-05
 Reference value :  4.67550e-05
 Reference value :  4.67576e-05
 Reference value :  4.67723e-05
 Reference value :  4.69043e-05
 Reference value :  4.70001e-05
 Reference value :  4.70002e-05
 Reference value :  4.70008e-05
 Reference value :  4.70018e-05
 Reference value :  4.70026e-05
 Reference value :  4.70047e-05
 Reference value :  4.70073e-05
 Reference value :  4.70100e-05
 Reference value :  4.70476e-05
 Reference value :  4.72502e-05
 Reference value :  4.72503e-05
 Reference value :  4.72507e-05
 Reference value :  4.72514e-05
 Reference value :  4.72530e-05
 Reference value :  4.72544e-05
 Reference value :  4.72567e-05
 Reference value :  4.72593e-05
 Reference value :  4.72683e-05
 Reference value :  4.73479e-05
 Reference value :  4.75001e-05
 Reference value :  4.75002e-05
 Reference value :  4.75013e-05
 Reference value :  4.75022e-05
 Reference value :  4.75039e-05
 Reference value :  4.75050e-05
 Reference value :  4.75061e-05
 Reference value :  4.75097e-05
 Reference value :  4.75117e-05
 Reference value :  4.75145e-05
 Reference value :  4.75176e-05
 Reference value :  4.75239e-05
 Reference value :  4.75501e-05
 Reference value :  4.76118e-05
 Reference value :  4.77501e-05
 Reference value :  4.77502e-05
 Reference value :  4.77504e-05
[...]
 Reference value :  1.66751e-04
 Reference value :  1.66752e-04
 Reference value :  1.66754e-04
 Reference value :  1.66755e-04
 Reference value :  1.66758e-04
 Reference value :  1.66765e-04
 Reference value :  1.66840e-04
 Reference value :  1.67000e-04
 Reference value :  1.67000e-04
 Reference value :  1.67000e-04
 Reference value :  1.67001e-04
 Reference value :  1.67002e-04
 Reference value :  1.67003e-04
 Reference value :  1.67004e-04
 Reference value :  1.67006e-04
 Reference value :  1.67008e-04
 Reference value :  1.67012e-04
 Reference value :  1.67029e-04
 Reference value :  1.67250e-04
 Reference value :  1.67250e-04
 Reference value :  1.67250e-04
 Reference value :  1.67251e-04
 Reference value :  1.67252e-04
 Reference value :  1.67254e-04
 Reference value :  1.67255e-04
 Reference value :  1.67258e-04
 Reference value :  1.67273e-04
 Reference value :  1.67500e-04
 Reference value :  1.67500e-04
 Reference value :  1.67500e-04
 Reference value :  1.67500e-04
 Reference value :  1.67501e-04
 Reference value :  1.67502e-04
 Reference value :  1.67503e-04
 Reference value :  1.67504e-04
 Reference value :  1.67506e-04
 Reference value :  1.67506e-04
 Reference value :  1.67508e-04
 Reference value :  1.67510e-04
 Reference value :  1.67513e-04
 Reference value :  1.67514e-04
 Reference value :  1.67516e-04
 Reference value :  1.67517e-04
 Reference value :  1.67519e-04
 Reference value :  1.67526e-04
 Reference value :  1.67541e-04
 Reference value :  1.67562e-04
 Reference value :  1.67574e-04
 Reference value :  1.67598e-04
 Reference value :  1.67623e-04
 Reference value :  1.67648e-04
 Reference value :  1.67691e-04
 Reference value :  1.67750e-04
 Reference value :  1.67750e-04
 Reference value :  1.67750e-04
 Reference value :  1.67750e-04
 Reference value :  1.67750e-04
 Reference value :  1.67751e-04
 Reference value :  1.67751e-04
 Reference value :  1.67752e-04
 Reference value :  1.67754e-04
 Reference value :  1.67755e-04
 Reference value :  1.67757e-04
 Reference value :  1.67762e-04
 Reference value :  1.67785e-04
 Reference value :  1.67900e-04
 Reference value :  1.68000e-04
 Reference value :  1.68000e-04
 Reference value :  1.68000e-04
 Reference value :  1.68000e-04
 Reference value :  1.68001e-04
 Reference value :  1.68002e-04
 Reference value :  1.68003e-04
 Reference value :  1.68004e-04
 Reference value :  1.68005e-04
 Reference value :  1.68007e-04
 Reference value :  1.68007e-04
 Reference value :  1.68009e-04
 Reference value :  1.68011e-04
 Reference value :  1.68020e-04
 Reference value :  1.68085e-04
 Reference value :  1.68250e-04
 Reference value :  1.68250e-04
 Reference value :  1.68250e-04
 Reference value :  1.68250e-04
 Reference value :  1.68251e-04
 Reference value :  1.68252e-04
 Reference value :  1.68253e-04
 Reference value :  1.68254e-04
 Reference value :  1.68256e-04
 Reference value :  1.68258e-04
 Reference value :  1.68259e-04
 Reference value :  1.68262e-04
 Reference value :  1.68275e-04
 Reference value :  1.68348e-04
 Reference value :  1.68500e-04
 Reference value :  1.68500e-04
 Reference value :  1.68500e-04
 Reference value :  1.68500e-04
 Reference value :  1.68500e-04
 Reference value :  1.68501e-04
 Reference value :  1.68502e-04
 Reference value :  1.68503e-04
 Reference value :  1.68504e-04
 Reference value :  1.68506e-04
 Reference value :  1.68506e-04
 Reference value :  1.68508e-04
 Reference value :  1.68510e-04
 Reference value :  1.68511e-04
 Reference value :  1.68513e-04
 Reference value :  1.68514e-04
 Reference value :  1.68516e-04
 Reference value :  1.68518e-04
 Reference value :  1.68520e-04
 Reference value :  1.68524e-04
 Reference value :  1.68537e-04
 Reference value :  1.68604e-04
 Reference value :  1.68750e-04
 Reference value :  1.68750e-04
 Reference value :  1.68750e-04
 Reference value :  1.68750e-04
 Reference value :  1.68751e-04
 Reference value :  1.68753e-04
 Reference value :  1.68754e-04
 Reference value :  1.68757e-04
 Reference value :  1.68765e-04
 Reference value :  1.68839e-04
 Reference value :  1.69000e-04
 Reference value :  1.69000e-04
 Reference value :  1.69000e-04
 Reference value :  1.69000e-04
 Reference value :  1.69001e-04
 Reference value :  1.69002e-04
 Reference value :  1.69004e-04
 Reference value :  1.69006e-04
 Reference value :  1.69007e-04
 Reference value :  1.69010e-04
 Reference value :  1.69029e-04
 Reference value :  1.69250e-04
 Reference value :  1.69250e-04
 Reference value :  1.69250e-04
 Reference value :  1.69250e-04
 Reference value :  1.69251e-04
 Reference value :  1.69252e-04
 Reference value :  1.69254e-04
 Reference value :  1.69255e-04
 Reference value :  1.69257e-04
 Reference value :  1.69258e-04
 Reference value :  1.69261e-04
 Reference value :  1.69268e-04
 Reference value :  1.69307e-04
 Reference value :  1.69500e-04
 Reference value :  1.69500e-04
 Reference value :  1.69500e-04
 Reference value :  1.69500e-04
 Reference value :  1.69500e-04
 Reference value :  1.69501e-04
 Reference value :  1.69502e-04
 Reference value :  1.69503e-04
 Reference value :  1.69504e-04
 Reference value :  1.69506e-04
 Reference value :  1.69506e-04
 Reference value :  1.69508e-04
 Reference value :  1.69509e-04
 Reference value :  1.69511e-04
 Reference value :  1.69513e-04
 Reference value :  1.69516e-04
 Reference value :  1.69518e-04
 Reference value :  1.69531e-04
 Reference value :  1.69547e-04
 Reference value :  1.69556e-04
 Reference value :  1.69571e-04
 Reference value :  1.69594e-04
 Reference value :  1.69620e-04
 Reference value :  1.69750e-04
 Reference value :  1.69750e-04
 Reference value :  1.69750e-04
 Reference value :  1.69750e-04
 Reference value :  1.69751e-04
 Reference value :  1.69751e-04
 Reference value :  1.69752e-04
 Reference value :  1.69754e-04
 Reference value :  1.69756e-04
 Reference value :  1.69758e-04
 Reference value :  1.69765e-04
 Reference value :  1.69796e-04
 Reference value :  1.69996e-04
 Reference value :  1.70000e-04
 Reference value :  1.70000e-04
 Reference value :  1.70000e-04
 Reference value :  1.70000e-04
 Reference value :  1.70000e-04
 Reference value :  1.70000e-04
 Reference value :  1.70000e-04
 Reference value :  1.70000e-04
 Reference value :  1.70000e-04
 Reference value :  1.70001e-04
 Reference value :  1.70002e-04
 Reference value :  1.70002e-04
 Reference value :  1.70003e-04
 Reference value :  1.70005e-04
 Reference value :  1.70006e-04
 Reference value :  1.70009e-04
 Reference value :  1.70021e-04
 Reference value :  1.70027e-04
 Reference value :  1.70031e-04
 Reference value :  1.70041e-04
 Reference value :  1.70052e-04
 Reference value :  1.70055e-04
 Reference value :  1.70063e-04
 Reference value :  1.70077e-04
 Reference value :  1.70112e-04
 Reference value :  1.70250e-04
 Reference value :  1.70250e-04
 Reference value :  1.70250e-04
 Reference value :  1.70251e-04
 Reference value :  1.70252e-04
 Reference value :  1.70254e-04
 Reference value :  1.70256e-04
 Reference value :  1.70259e-04
 Reference value :  1.70284e-04
 Reference value :  1.70500e-04
 Reference value :  1.70500e-04
 Reference value :  1.70500e-04
 Reference value :  1.70500e-04
 Reference value :  1.70501e-04
 Reference value :  1.70502e-04
 Reference value :  1.70504e-04
 Reference value :  1.70507e-04
 Reference value :  1.70508e-04
 Reference value :  1.70511e-04
 Reference value :  1.70514e-04
 Reference value :  1.70515e-04
 Reference value :  1.70521e-04
 Reference value :  1.70552e-04
 Reference value :  1.70750e-04
 Reference value :  1.70750e-04
 Reference value :  1.70750e-04
 Reference value :  1.70751e-04
 Reference value :  1.70752e-04
 Reference value :  1.70754e-04
 Reference value :  1.70755e-04
 Reference value :  1.70757e-04
 Reference value :  1.70760e-04
 Reference value :  1.70771e-04
 Reference value :  1.70799e-04
 Reference value :  1.70897e-04
 Reference value :  1.71000e-04
 Reference value :  1.71000e-04
 Reference value :  1.71000e-04
 Reference value :  1.71001e-04
 Reference value :  1.71002e-04
 Reference value :  1.71003e-04
 Reference value :  1.71004e-04
 Reference value :  1.71004e-04
 Reference value :  1.71006e-04
 Reference value :  1.71007e-04
 Reference value :  1.71010e-04
 Reference value :  1.71012e-04
 Reference value :  1.71015e-04
 Reference value :  1.71016e-04
 Reference value :  1.71019e-04
 Reference value :  1.71027e-04
 Reference value :  1.71138e-04
 Reference value :  1.71250e-04
 Reference value :  1.71250e-04
 Reference value :  1.71251e-04
 Reference value :  1.71252e-04
 Reference value :  1.71254e-04
 Reference value :  1.71259e-04
 Reference value :  1.71339e-04
 Reference value :  1.71500e-04
 Reference value :  1.71500e-04
 Reference value :  1.71500e-04
 Reference value :  1.71501e-04
 Reference value :  1.71503e-04
 Reference value :  1.71505e-04
 Reference value :  1.71507e-04
 Reference value :  1.71507e-04
 Reference value :  1.71509e-04
 Reference value :  1.71512e-04
 Reference value :  1.71585e-04
 Reference value :  1.71750e-04
 Reference value :  1.71750e-04
 Reference value :  1.71751e-04
 Reference value :  1.71752e-04
 Reference value :  1.71754e-04
 Reference value :  1.71757e-04
 Reference value :  1.71761e-04
 Reference value :  1.71787e-04
 Reference value :  1.72000e-04
 Reference value :  1.72000e-04
 Reference value :  1.72000e-04
 Reference value :  1.72001e-04
 Reference value :  1.72002e-04
 Reference value :  1.72004e-04
 Reference value :  1.72006e-04
 Reference value :  1.72010e-04
 Reference value :  1.72012e-04
 Reference value :  1.72014e-04
 Reference value :  1.72016e-04
 Reference value :  1.72021e-04
 Reference value :  1.72084e-04
 Reference value :  1.72250e-04
 Reference value :  1.72250e-04
 Reference value :  1.72250e-04
 Reference value :  1.72251e-04
 Reference value :  1.72253e-04
 Reference value :  1.72255e-04
 Reference value :  1.72259e-04
 Reference value :  1.72304e-04
 Reference value :  1.72500e-04
 Reference value :  1.72500e-04
 Reference value :  1.72501e-04
 Reference value :  1.72502e-04
 Reference value :  1.72504e-04
 Reference value :  1.72507e-04
 Reference value :  1.72507e-04
 Reference value :  1.72509e-04
 Reference value :  1.72512e-04
 Reference value :  1.72585e-04
 Reference value :  1.72750e-04
 Reference value :  1.72750e-04
 Reference value :  1.72751e-04
 Reference value :  1.72752e-04
 Reference value :  1.72754e-04
 Reference value :  1.72756e-04
 Reference value :  1.72758e-04
 Reference value :  1.72765e-04
 Reference value :  1.72848e-04
 Reference value :  1.73000e-04
 Reference value :  1.73000e-04
 Reference value :  1.73000e-04
 Reference value :  1.73002e-04
 Reference value :  1.73003e-04
 Reference value :  1.73004e-04
 Reference value :  1.73006e-04
 Reference value :  1.73007e-04
 Reference value :  1.73010e-04
 Reference value :  1.73011e-04
 Reference value :  1.73013e-04
 Reference value :  1.73015e-04
 Reference value :  1.73016e-04
 Reference value :  1.73020e-04
 Reference value :  1.73041e-04
 Reference value :  1.73138e-04
 Reference value :  1.73250e-04
 Reference value :  1.73250e-04
 Reference value :  1.73251e-04
 Reference value :  1.73251e-04
 Reference value :  1.73252e-04
 Reference value :  1.73254e-04
 Reference value :  1.73254e-04
 Reference value :  1.73256e-04
 Reference value :  1.73259e-04
 Reference value :  1.73284e-04
 Reference value :  1.73404e-04
 Reference value :  1.73500e-04
 Reference value :  1.73500e-04
 Reference value :  1.73500e-04
 Reference value :  1.73501e-04
 Reference value :  1.73502e-04
 Reference value :  1.73503e-04
 Reference value :  1.73504e-04
 Reference value :  1.73506e-04
 Reference value :  1.73507e-04
 Reference value :  1.73509e-04
 Reference value :  1.73512e-04
 Reference value :  1.73529e-04
 Reference value :  1.73750e-04
 Reference value :  1.73750e-04
 Reference value :  1.73750e-04
 Reference value :  1.73751e-04
 Reference value :  1.73751e-04
 Reference value :  1.73753e-04
 Reference value :  1.73754e-04
 Reference value :  1.73757e-04
 Reference value :  1.73758e-04
 Reference value :  1.73762e-04
 Reference value :  1.73787e-04
 Reference value :  1.74000e-04
 Reference value :  1.74000e-04
 Reference value :  1.74000e-04
 Reference value :  1.74000e-04
 Reference value :  1.74001e-04
 Reference value :  1.74002e-04
 Reference value :  1.74003e-04
 Reference value :  1.74004e-04
 Reference value :  1.74006e-04
 Reference value :  1.74007e-04
 Reference value :  1.74010e-04
 Reference value :  1.74012e-04
 Reference value :  1.74014e-04
 Reference value :  1.74015e-04
 Reference value :  1.74017e-04
 Reference value :  1.74021e-04
 Reference value :  1.74041e-04
 Reference value :  1.74077e-04
 Reference value :  1.74120e-04
 Reference value :  1.74212e-04
 Reference value :  1.74250e-04
 Reference value :  1.74250e-04
 Reference value :  1.74250e-04
 Reference value :  1.74251e-04
 Reference value :  1.74252e-04
 Reference value :  1.74254e-04
 Reference value :  1.74255e-04
 Reference value :  1.74258e-04
 Reference value :  1.74272e-04
 Reference value :  1.74404e-04
 Reference value :  1.74500e-04
 Reference value :  1.74500e-04
 Reference value :  1.74500e-04
 Reference value :  1.74501e-04
 Reference value :  1.74502e-04
 Reference value :  1.74503e-04
 Reference value :  1.74504e-04
 Reference value :  1.74506e-04
 Reference value :  1.74507e-04
 Reference value :  1.74509e-04
 Reference value :  1.74512e-04
 Reference value :  1.74548e-04
 Reference value :  1.74750e-04
 Reference value :  1.74750e-04
 Reference value :  1.74750e-04
 Reference value :  1.74750e-04
 Reference value :  1.74751e-04
 Reference value :  1.74751e-04
 Reference value :  1.74752e-04
 Reference value :  1.74754e-04
 Reference value :  1.74754e-04
 Reference value :  1.74756e-04
 Reference value :  1.74758e-04
 Reference value :  1.74758e-04
 Reference value :  1.74761e-04
 Reference value :  1.74768e-04
 Reference value :  1.74808e-04
 Reference value :  1.75000e-04
 Reference value :  1.75000e-04
 Reference value :  1.75000e-04
 Reference value :  1.75000e-04
 Reference value :  1.75001e-04
 Reference value :  1.75002e-04
 Reference value :  1.75003e-04
 Reference value :  1.75004e-04
 Reference value :  1.75004e-04
 Reference value :  1.75006e-04
 Reference value :  1.75007e-04
 Reference value :  1.75008e-04
 Reference value :  1.75011e-04
 Reference value :  1.75013e-04
 Reference value :  1.75014e-04
 Reference value :  1.75018e-04
 Reference value :  1.75021e-04
 Reference value :  1.75036e-04
 Reference value :  1.75052e-04
 Reference value :  1.75056e-04
 Reference value :  1.75065e-04
 Reference value :  1.75081e-04
 Reference value :  1.75192e-04
 Reference value :  1.75250e-04
 Reference value :  1.75250e-04
 Reference value :  1.75250e-04
 Reference value :  1.75251e-04
 Reference value :  1.75252e-04
 Reference value :  1.75253e-04
 Reference value :  1.75254e-04
 Reference value :  1.75256e-04
 Reference value :  1.75258e-04
 Reference value :  1.75265e-04
 Reference value :  1.75305e-04
 Reference value :  1.75500e-04
 Reference value :  1.75500e-04
 Reference value :  1.75500e-04
 Reference value :  1.75500e-04
 Reference value :  1.75501e-04
 Reference value :  1.75501e-04
 Reference value :  1.75502e-04
 Reference value :  1.75503e-04
 Reference value :  1.75504e-04
 Reference value :  1.75506e-04
 Reference value :  1.75508e-04
 Reference value :  1.75512e-04
 Reference value :  1.75529e-04
 Reference value :  1.75645e-04
 Reference value :  1.75750e-04
 Reference value :  1.75750e-04
 Reference value :  1.75750e-04
 Reference value :  1.75751e-04
 Reference value :  1.75753e-04
 Reference value :  1.75754e-04
 Reference value :  1.75757e-04
 Reference value :  1.75765e-04
 Reference value :  1.75840e-04
 Reference value :  1.76000e-04
 Reference value :  1.76000e-04
 Reference value :  1.76000e-04
 Reference value :  1.76000e-04
 Reference value :  1.76001e-04
 Reference value :  1.76002e-04
 Reference value :  1.76003e-04
 Reference value :  1.76004e-04
 Reference value :  1.76006e-04
 Reference value :  1.76008e-04
 Reference value :  1.76011e-04
 Reference value :  1.76014e-04
 Reference value :  1.76017e-04
 Reference value :  1.76026e-04
 Reference value :  1.76085e-04
 Reference value :  1.76139e-04
 Reference value :  1.76187e-04
 Reference value :  1.76250e-04
 Reference value :  1.76250e-04
 Reference value :  1.76251e-04
 Reference value :  1.76251e-04
 Reference value :  1.76253e-04
 Reference value :  1.76254e-04
 Reference value :  1.76257e-04
 Reference value :  1.76266e-04
 Reference value :  1.76304e-04
 Reference value :  1.76500e-04
 Reference value :  1.76500e-04
 Reference value :  1.76500e-04
 Reference value :  1.76500e-04
 Reference value :  1.76500e-04
 Reference value :  1.76501e-04
 Reference value :  1.76502e-04
 Reference value :  1.76503e-04
 Reference value :  1.76504e-04
 Reference value :  1.76506e-04
 Reference value :  1.76507e-04
 Reference value :  1.76509e-04
 Reference value :  1.76511e-04
 Reference value :  1.76520e-04
 Reference value :  1.76585e-04
 Reference value :  1.76750e-04
 Reference value :  1.76750e-04
 Reference value :  1.76750e-04
 Reference value :  1.76750e-04
 Reference value :  1.76751e-04
 Reference value :  1.76752e-04
 Reference value :  1.76753e-04
 Reference value :  1.76754e-04
 Reference value :  1.76757e-04
 Reference value :  1.76759e-04
 Reference value :  1.76765e-04
 Reference value :  1.76848e-04
 Reference value :  1.77000e-04
 Reference value :  1.77000e-04
 Reference value :  1.77001e-04
 Reference value :  1.77003e-04
 Reference value :  1.77005e-04
 Reference value :  1.77006e-04
 Reference value :  1.77011e-04
 Reference value :  1.77014e-04
 Reference value :  1.77018e-04
 Reference value :  1.77027e-04
 Reference value :  1.77176e-04
 Reference value :  1.77250e-04
 Reference value :  1.77250e-04
 Reference value :  1.77251e-04
 Reference value :  1.77254e-04
 Reference value :  1.77255e-04
 Reference value :  1.77258e-04
 Reference value :  1.77265e-04
 Reference value :  1.77339e-04
 Reference value :  1.77500e-04
 Reference value :  1.77500e-04
 Reference value :  1.77500e-04
 Reference value :  1.77502e-04
 Reference value :  1.77503e-04
 Reference value :  1.77505e-04
 Reference value :  1.77507e-04
 Reference value :  1.77509e-04
 Reference value :  1.77511e-04
 Reference value :  1.77529e-04
 Reference value :  1.77621e-04
 Reference value :  1.77705e-04
 Reference value :  1.77750e-04
 Reference value :  1.77750e-04
 Reference value :  1.77750e-04
 Reference value :  1.77750e-04
 Reference value :  1.77750e-04
 Reference value :  1.77751e-04
 Reference value :  1.77751e-04
 Reference value :  1.77752e-04
 Reference value :  1.77754e-04
 Reference value :  1.77754e-04
 Reference value :  1.77756e-04
 Reference value :  1.77758e-04
 Reference value :  1.77765e-04
 Reference value :  1.77797e-04
 Reference value :  1.77874e-04
 Reference value :  1.78000e-04
 Reference value :  1.78000e-04
 Reference value :  1.78000e-04
 Reference value :  1.78000e-04
 Reference value :  1.78001e-04
 Reference value :  1.78001e-04
 Reference value :  1.78002e-04
 Reference value :  1.78003e-04
 Reference value :  1.78004e-04
 Reference value :  1.78006e-04
 Reference value :  1.78006e-04
 Reference value :  1.78008e-04
 Reference value :  1.78009e-04
 Reference value :  1.78011e-04
 Reference value :  1.78018e-04
 Reference value :  1.78079e-04
 Reference value :  1.78250e-04
 Reference value :  1.78250e-04
 Reference value :  1.78250e-04
 Reference value :  1.78250e-04
 Reference value :  1.78250e-04
 Reference value :  1.78251e-04
 Reference value :  1.78251e-04
 Reference value :  1.78252e-04
 Reference value :  1.78254e-04
 Reference value :  1.78256e-04
 Reference value :  1.78258e-04
 Reference value :  1.78265e-04
 Reference value :  1.78296e-04
 Reference value :  1.78497e-04
No. of Data Rows : 25562
ngspice-44 done
