
Note: Compatibility modes selected: hs a


Circuit: ** sch_path: /home/samantha/cace/sar-adc-using-sky130-pdk/runs/run_2025-09-05_10-55-47/parameters/power/run_05/power_consumption.sch

option SCALE: Scale is set to 1e-06 for instance and model parameters
option SCALE: Scale is set to 1e-06 for instance and model parameters
option SCALE: Scale is set to 1e-06 for instance and model parameters
option SCALE: Scale is set to 1e-06 for instance and model parameters
Doing analysis at TEMP = 27.000000 and TNOM = 27.000000

Using KLU as Direct Linear Solver
 Reference value :  0.00000e+00
 Reference value :  1.00000e-12
 Reference value :  4.00000e-12
 Reference value :  8.00000e-12
 Reference value :  3.20000e-11
 Reference value :  6.40000e-11
 Reference value :  1.00000e-10
 Reference value :  1.19200e-10
 Reference value :  1.96000e-10
 Reference value :  2.98400e-10
 Reference value :  4.51199e-10
 Reference value :  7.56797e-10
 Reference value :  1.04164e-09
 Reference value :  1.50285e-09
 Reference value :  1.91785e-09
 Reference value :  2.38886e-09
 Reference value :  2.84752e-09
 Reference value :  3.24805e-09
 Reference value :  3.71857e-09
 Reference value :  4.21174e-09
 Reference value :  4.70521e-09
 Reference value :  5.84527e-09
 Reference value :  6.64975e-09
 Reference value :  7.41444e-09
 Reference value :  8.29539e-09
 Reference value :  9.24311e-09
 Reference value :  1.01509e-08
 Reference value :  1.12071e-08
 Reference value :  1.23547e-08
 Reference value :  1.32872e-08
 Reference value :  1.42148e-08
 Reference value :  1.50858e-08
 Reference value :  1.60245e-08
 Reference value :  1.73250e-08
 Reference value :  1.99258e-08
 Reference value :  2.26285e-08
 Reference value :  2.51915e-08
 Reference value :  2.65215e-08
 Reference value :  2.78216e-08
 Reference value :  2.91472e-08
 Reference value :  3.27802e-08
 Reference value :  3.84339e-08
 Reference value :  4.57339e-08
 Reference value :  5.81302e-08
 Reference value :  8.81812e-08
 Reference value :  1.79588e-07
 Reference value :  2.27106e-07
 Reference value :  2.50100e-07
 Reference value :  2.50130e-07
 Reference value :  2.50170e-07
 Reference value :  2.50200e-07
 Reference value :  2.50220e-07
 Reference value :  2.50246e-07
 Reference value :  2.50404e-07
 Reference value :  2.50517e-07
 Reference value :  2.50721e-07
 Reference value :  2.50944e-07
 Reference value :  2.51389e-07
 Reference value :  2.51880e-07
 Reference value :  2.52347e-07
 Reference value :  2.52987e-07
 Reference value :  2.53837e-07
 Reference value :  2.54416e-07
 Reference value :  2.55083e-07
 Reference value :  2.56636e-07
 Reference value :  2.57529e-07
 Reference value :  2.58917e-07
 Reference value :  2.60498e-07
 Reference value :  2.66485e-07
 Reference value :  2.79670e-07
 Reference value :  2.86422e-07
 Reference value :  3.01792e-07
 Reference value :  3.16914e-07
 Reference value :  3.38774e-07
 Reference value :  4.69939e-07
 Reference value :  5.00010e-07
 Reference value :  5.00030e-07
 Reference value :  5.00070e-07
 Reference value :  5.00100e-07
 Reference value :  5.00108e-07
 Reference value :  5.00124e-07
 Reference value :  5.00220e-07
 Reference value :  5.00348e-07
 Reference value :  5.00864e-07
 Reference value :  5.01301e-07
 Reference value :  5.01765e-07
 Reference value :  5.02214e-07
 Reference value :  5.02709e-07
 Reference value :  5.04076e-07
 Reference value :  5.04875e-07
 Reference value :  5.06797e-07
 Reference value :  5.08148e-07
 Reference value :  5.09655e-07
 Reference value :  5.10955e-07
 Reference value :  5.12316e-07
 Reference value :  5.14048e-07
 Reference value :  5.15897e-07
 Reference value :  5.17976e-07
 Reference value :  5.20324e-07
 Reference value :  5.22668e-07
 Reference value :  5.32892e-07
 Reference value :  5.59472e-07
 Reference value :  6.32835e-07
 Reference value :  7.50100e-07
 Reference value :  7.50130e-07
 Reference value :  7.50200e-07
 Reference value :  7.50208e-07
 Reference value :  7.50254e-07
 Reference value :  7.50441e-07
 Reference value :  7.50614e-07
 Reference value :  7.50849e-07
 Reference value :  7.51751e-07
 Reference value :  7.52256e-07
 Reference value :  7.52826e-07
 Reference value :  7.53589e-07
 Reference value :  7.54155e-07
 Reference value :  7.54810e-07
 Reference value :  7.55396e-07
 Reference value :  7.56046e-07
 Reference value :  7.56904e-07
 Reference value :  7.58718e-07
 Reference value :  7.61145e-07
 Reference value :  7.65292e-07
 Reference value :  7.74679e-07
 Reference value :  7.97512e-07
 Reference value :  8.55628e-07
 Reference value :  1.00000e-06
 Reference value :  1.00001e-06
 Reference value :  1.00003e-06
 Reference value :  1.00007e-06
 Reference value :  1.00010e-06
 Reference value :  1.00011e-06
 Reference value :  1.00012e-06
 Reference value :  1.00016e-06
 Reference value :  1.00022e-06
 Reference value :  1.00035e-06
 Reference value :  1.00052e-06
 Reference value :  1.00086e-06
 Reference value :  1.00130e-06
 Reference value :  1.00176e-06
 Reference value :  1.00224e-06
 Reference value :  1.00340e-06
 Reference value :  1.00403e-06
 Reference value :  1.00457e-06
 Reference value :  1.00521e-06
 Reference value :  1.00581e-06
 Reference value :  1.00649e-06
 Reference value :  1.00806e-06
 Reference value :  1.01047e-06
 Reference value :  1.01146e-06
 Reference value :  1.01254e-06
 Reference value :  1.01356e-06
 Reference value :  1.01468e-06
 Reference value :  1.01543e-06
 Reference value :  1.01626e-06
 Reference value :  1.01736e-06
 Reference value :  1.01849e-06
 Reference value :  1.01954e-06
 Reference value :  1.02083e-06
 Reference value :  1.02419e-06
 Reference value :  1.03192e-06
 Reference value :  1.05417e-06
 Reference value :  1.12051e-06
 Reference value :  1.18104e-06
 Reference value :  1.23496e-06
 Reference value :  1.25010e-06
 Reference value :  1.25011e-06
 Reference value :  1.25013e-06
 Reference value :  1.25017e-06
 Reference value :  1.25020e-06
 Reference value :  1.25021e-06
 Reference value :  1.25022e-06
 Reference value :  1.25026e-06
 Reference value :  1.25032e-06
 Reference value :  1.25045e-06
 Reference value :  1.25062e-06
 Reference value :  1.25086e-06
 Reference value :  1.25127e-06
 Reference value :  1.25176e-06
 Reference value :  1.25226e-06
 Reference value :  1.25284e-06
 Reference value :  1.25364e-06
 Reference value :  1.25422e-06
 Reference value :  1.25487e-06
 Reference value :  1.25550e-06
 Reference value :  1.25617e-06
 Reference value :  1.25715e-06
 Reference value :  1.25839e-06
 Reference value :  1.26011e-06
 Reference value :  1.26644e-06
 Reference value :  1.27164e-06
 Reference value :  1.28510e-06
 Reference value :  1.30589e-06
 Reference value :  1.35323e-06
 Reference value :  1.48314e-06
 Reference value :  1.50000e-06
 Reference value :  1.50001e-06
 Reference value :  1.50003e-06
 Reference value :  1.50007e-06
 Reference value :  1.50010e-06
 Reference value :  1.50011e-06
 Reference value :  1.50012e-06
 Reference value :  1.50022e-06
 Reference value :  1.50035e-06
 Reference value :  1.50052e-06
 Reference value :  1.50086e-06
 Reference value :  1.50130e-06
 Reference value :  1.50223e-06
 Reference value :  1.50276e-06
 Reference value :  1.50339e-06
 Reference value :  1.50398e-06
 Reference value :  1.50462e-06
 Reference value :  1.50531e-06
 Reference value :  1.50628e-06
 Reference value :  1.50745e-06
 Reference value :  1.50856e-06
 Reference value :  1.50962e-06
 Reference value :  1.51091e-06
 Reference value :  1.51229e-06
 Reference value :  1.51370e-06
 Reference value :  1.51650e-06
 Reference value :  1.52109e-06
 Reference value :  1.54190e-06
 Reference value :  1.60273e-06
 Reference value :  1.75010e-06
 Reference value :  1.75011e-06
 Reference value :  1.75013e-06
 Reference value :  1.75020e-06
 Reference value :  1.75021e-06
 Reference value :  1.75026e-06
 Reference value :  1.75032e-06
 Reference value :  1.75045e-06
 Reference value :  1.75062e-06
 Reference value :  1.75086e-06
 Reference value :  1.75127e-06
 Reference value :  1.75176e-06
 Reference value :  1.75284e-06
 Reference value :  1.75363e-06
 Reference value :  1.75420e-06
 Reference value :  1.75486e-06
 Reference value :  1.75544e-06
 Reference value :  1.75693e-06
 Reference value :  1.75963e-06
 Reference value :  1.76528e-06
 Reference value :  1.78334e-06
 Reference value :  1.85558e-06
 Reference value :  2.00000e-06
 Reference value :  2.00001e-06
 Reference value :  2.00007e-06
 Reference value :  2.00010e-06
 Reference value :  2.00012e-06
 Reference value :  2.00022e-06
 Reference value :  2.00052e-06
 Reference value :  2.00130e-06
 Reference value :  2.00176e-06
 Reference value :  2.00223e-06
 Reference value :  2.00276e-06
 Reference value :  2.00340e-06
 Reference value :  2.00457e-06
 Reference value :  2.00580e-06
 Reference value :  2.00647e-06
 Reference value :  2.00804e-06
 Reference value :  2.01087e-06
 Reference value :  2.01269e-06
 Reference value :  2.01416e-06
 Reference value :  2.01541e-06
 Reference value :  2.01661e-06
 Reference value :  2.01787e-06
 Reference value :  2.01896e-06
 Reference value :  2.02014e-06
 Reference value :  2.02308e-06
 Reference value :  2.02502e-06
 Reference value :  2.02806e-06
 Reference value :  2.03261e-06
 Reference value :  2.03729e-06
 Reference value :  2.04138e-06
 Reference value :  2.04556e-06
 Reference value :  2.04833e-06
 Reference value :  2.05472e-06
 Reference value :  2.06064e-06
 Reference value :  2.07539e-06
 Reference value :  2.09586e-06
 Reference value :  2.17238e-06
 Reference value :  2.25010e-06
 Reference value :  2.25011e-06
 Reference value :  2.25013e-06
 Reference value :  2.25020e-06
 Reference value :  2.25022e-06
 Reference value :  2.25025e-06
 Reference value :  2.25044e-06
 Reference value :  2.25085e-06
 Reference value :  2.25175e-06
 Reference value :  2.25226e-06
 Reference value :  2.25283e-06
 Reference value :  2.25363e-06
 Reference value :  2.25418e-06
 Reference value :  2.25545e-06
 Reference value :  2.25706e-06
 Reference value :  2.26272e-06
 Reference value :  2.28679e-06
 Reference value :  2.47941e-06
 Reference value :  2.50001e-06
 Reference value :  2.50003e-06
 Reference value :  2.50010e-06
 Reference value :  2.50012e-06
 Reference value :  2.50016e-06
 Reference value :  2.50035e-06
 Reference value :  2.50052e-06
 Reference value :  2.50086e-06
 Reference value :  2.50130e-06
 Reference value :  2.50221e-06
 Reference value :  2.50331e-06
 Reference value :  2.50404e-06
 Reference value :  2.50558e-06
 Reference value :  2.50674e-06
 Reference value :  2.50756e-06
 Reference value :  2.50950e-06
 Reference value :  2.51063e-06
 Reference value :  2.51326e-06
 Reference value :  2.51917e-06
 Reference value :  2.53761e-06
 Reference value :  2.60676e-06
 Reference value :  2.75010e-06
 Reference value :  2.75013e-06
 Reference value :  2.75020e-06
 Reference value :  2.75021e-06
 Reference value :  2.75026e-06
 Reference value :  2.75045e-06
 Reference value :  2.75086e-06
 Reference value :  2.75176e-06
 Reference value :  2.75284e-06
 Reference value :  2.75361e-06
 Reference value :  2.75417e-06
 Reference value :  2.75540e-06
 Reference value :  2.75688e-06
 Reference value :  2.75869e-06
 Reference value :  2.76111e-06
 Reference value :  2.76524e-06
 Reference value :  2.77450e-06
 Reference value :  2.79679e-06
 Reference value :  2.85291e-06
 Reference value :  3.00000e-06
 Reference value :  3.00001e-06
 Reference value :  3.00003e-06
 Reference value :  3.00007e-06
 Reference value :  3.00010e-06
 Reference value :  3.00012e-06
 Reference value :  3.00022e-06
 Reference value :  3.00052e-06
 Reference value :  3.00130e-06
 Reference value :  3.00223e-06
 Reference value :  3.00276e-06
 Reference value :  3.00403e-06
 Reference value :  3.00457e-06
 Reference value :  3.00520e-06
 Reference value :  3.00581e-06
 Reference value :  3.00649e-06
 Reference value :  3.00806e-06
 Reference value :  3.01047e-06
 Reference value :  3.01147e-06
 Reference value :  3.01255e-06
 Reference value :  3.01356e-06
 Reference value :  3.01469e-06
 Reference value :  3.01543e-06
 Reference value :  3.01626e-06
 Reference value :  3.01737e-06
 Reference value :  3.01851e-06
 Reference value :  3.02087e-06
 Reference value :  3.02223e-06
 Reference value :  3.02425e-06
 Reference value :  3.02687e-06
 Reference value :  3.03210e-06
 Reference value :  3.05436e-06
 Reference value :  3.10548e-06
 Reference value :  3.15367e-06
 Reference value :  3.24912e-06
 Reference value :  3.25011e-06
 Reference value :  3.25017e-06
 Reference value :  3.25021e-06
 Reference value :  3.25025e-06
 Reference value :  3.25044e-06
 Reference value :  3.25085e-06
 Reference value :  3.25175e-06
 Reference value :  3.25226e-06
 Reference value :  3.25363e-06
 Reference value :  3.25420e-06
 Reference value :  3.25485e-06
 Reference value :  3.25547e-06
 Reference value :  3.25614e-06
 Reference value :  3.25833e-06
 Reference value :  3.26004e-06
 Reference value :  3.26623e-06
 Reference value :  3.28767e-06
 Reference value :  3.37343e-06
 Reference value :  3.50000e-06
 Reference value :  3.50003e-06
 Reference value :  3.50010e-06
 Reference value :  3.50012e-06
 Reference value :  3.50022e-06
 Reference value :  3.50035e-06
 Reference value :  3.50052e-06
 Reference value :  3.50130e-06
 Reference value :  3.50221e-06
 Reference value :  3.50331e-06
 Reference value :  3.50404e-06
 Reference value :  3.50559e-06
 Reference value :  3.50674e-06
 Reference value :  3.50756e-06
 Reference value :  3.50850e-06
 Reference value :  3.50950e-06
 Reference value :  3.51178e-06
 Reference value :  3.51547e-06
 Reference value :  3.52563e-06
 Reference value :  3.56044e-06
 Reference value :  3.69807e-06
 Reference value :  3.75010e-06
 Reference value :  3.75011e-06
 Reference value :  3.75013e-06
 Reference value :  3.75020e-06
 Reference value :  3.75022e-06
 Reference value :  3.75032e-06
 Reference value :  3.75045e-06
 Reference value :  3.75062e-06
 Reference value :  3.75127e-06
 Reference value :  3.75176e-06
 Reference value :  3.75226e-06
 Reference value :  3.75284e-06
 Reference value :  3.75361e-06
 Reference value :  3.75417e-06
 Reference value :  3.75482e-06
 Reference value :  3.75540e-06
 Reference value :  3.75604e-06
 Reference value :  3.75688e-06
 Reference value :  3.75869e-06
 Reference value :  3.76111e-06
 Reference value :  3.76290e-06
 Reference value :  3.76852e-06
 Reference value :  3.78275e-06
 Reference value :  3.79678e-06
 Reference value :  3.81857e-06
 Reference value :  3.91038e-06
 Reference value :  4.00001e-06
 Reference value :  4.00003e-06
 Reference value :  4.00007e-06
 Reference value :  4.00011e-06
 Reference value :  4.00012e-06
 Reference value :  4.00022e-06
 Reference value :  4.00035e-06
 Reference value :  4.00086e-06
 Reference value :  4.00130e-06
 Reference value :  4.00176e-06
 Reference value :  4.00223e-06
 Reference value :  4.00340e-06
 Reference value :  4.00402e-06
 Reference value :  4.00457e-06
 Reference value :  4.00520e-06
 Reference value :  4.00581e-06
 Reference value :  4.00649e-06
 Reference value :  4.00718e-06
 Reference value :  4.00806e-06
 Reference value :  4.01047e-06
 Reference value :  4.01147e-06
 Reference value :  4.01255e-06
 Reference value :  4.01387e-06
 Reference value :  4.01514e-06
 Reference value :  4.01638e-06
 Reference value :  4.01765e-06
 Reference value :  4.01881e-06
 Reference value :  4.02003e-06
 Reference value :  4.02140e-06
 Reference value :  4.02302e-06
 Reference value :  4.02798e-06
 Reference value :  4.03342e-06
 Reference value :  4.04197e-06
 Reference value :  4.05182e-06
 Reference value :  4.06309e-06
 Reference value :  4.07206e-06
 Reference value :  4.07661e-06
 Reference value :  4.08082e-06
 Reference value :  4.08519e-06
 Reference value :  4.09239e-06
 Reference value :  4.10160e-06
 Reference value :  4.13561e-06
 Reference value :  4.16515e-06
 Reference value :  4.25010e-06
 Reference value :  4.25013e-06
 Reference value :  4.25020e-06
 Reference value :  4.25021e-06
 Reference value :  4.25022e-06
 Reference value :  4.25025e-06
 Reference value :  4.25032e-06
 Reference value :  4.25040e-06
 Reference value :  4.25058e-06
 Reference value :  4.25078e-06
 Reference value :  4.25105e-06
 Reference value :  4.25158e-06
 Reference value :  4.25211e-06
 Reference value :  4.25266e-06
 Reference value :  4.25339e-06
 Reference value :  4.25422e-06
 Reference value :  4.25482e-06
 Reference value :  4.25550e-06
 Reference value :  4.25617e-06
 Reference value :  4.25702e-06
 Reference value :  4.25793e-06
 Reference value :  4.25971e-06
 Reference value :  4.26203e-06
 Reference value :  4.26554e-06
 Reference value :  4.27158e-06
 Reference value :  4.27814e-06
 Reference value :  4.28466e-06
 Reference value :  4.29074e-06
 Reference value :  4.29704e-06
 Reference value :  4.31901e-06
 Reference value :  4.33290e-06
 Reference value :  4.36320e-06
 Reference value :  4.41185e-06
 Reference value :  4.50000e-06
 Reference value :  4.50003e-06
 Reference value :  4.50010e-06
 Reference value :  4.50012e-06
 Reference value :  4.50022e-06
 Reference value :  4.50060e-06
 Reference value :  4.50097e-06
 Reference value :  4.50156e-06
 Reference value :  4.50257e-06
 Reference value :  4.50312e-06
 Reference value :  4.50371e-06
 Reference value :  4.50444e-06
 Reference value :  4.50512e-06
 Reference value :  4.50590e-06
 Reference value :  4.50692e-06
 Reference value :  4.50765e-06
 Reference value :  4.50849e-06
 Reference value :  4.50953e-06
 Reference value :  4.51062e-06
 Reference value :  4.51167e-06
 Reference value :  4.51295e-06
 Reference value :  4.51698e-06
 Reference value :  4.52735e-06
 Reference value :  4.55814e-06
 Reference value :  4.67399e-06
 Reference value :  4.75010e-06
 Reference value :  4.75011e-06
 Reference value :  4.75013e-06
 Reference value :  4.75017e-06
 Reference value :  4.75021e-06
 Reference value :  4.75025e-06
 Reference value :  4.75032e-06
 Reference value :  4.75040e-06
 Reference value :  4.75078e-06
 Reference value :  4.75157e-06
 Reference value :  4.75211e-06
 Reference value :  4.75266e-06
 Reference value :  4.75339e-06
 Reference value :  4.75421e-06
 Reference value :  4.75480e-06
 Reference value :  4.75624e-06
 Reference value :  4.75710e-06
 Reference value :  4.75805e-06
 Reference value :  4.75899e-06
 Reference value :  4.76139e-06
 Reference value :  4.76558e-06
 Reference value :  4.77515e-06
 Reference value :  4.78369e-06
 Reference value :  4.82049e-06
 Reference value :  4.91345e-06
 Reference value :  5.00001e-06
 Reference value :  5.00003e-06
 Reference value :  5.00010e-06
 Reference value :  5.00012e-06
 Reference value :  5.00022e-06
 Reference value :  5.00035e-06
 Reference value :  5.00097e-06
 Reference value :  5.00211e-06
 Reference value :  5.00259e-06
 Reference value :  5.00315e-06
 Reference value :  5.00374e-06
 Reference value :  5.00442e-06
 Reference value :  5.00498e-06
 Reference value :  5.00559e-06
 Reference value :  5.00610e-06
 Reference value :  5.00669e-06
 Reference value :  5.00824e-06
 Reference value :  5.00923e-06
 Reference value :  5.01176e-06
 Reference value :  5.01291e-06
 Reference value :  5.01415e-06
 Reference value :  5.01512e-06
 Reference value :  5.01607e-06
 Reference value :  5.01726e-06
 Reference value :  5.01835e-06
 Reference value :  5.01955e-06
 Reference value :  5.02093e-06
 Reference value :  5.02450e-06
 Reference value :  5.02902e-06
 Reference value :  5.03152e-06
 Reference value :  5.03380e-06
 Reference value :  5.03587e-06
 Reference value :  5.03811e-06
 Reference value :  5.04442e-06
 Reference value :  5.04962e-06
 Reference value :  5.05859e-06
 Reference value :  5.06909e-06
 Reference value :  5.10955e-06
 Reference value :  5.25010e-06
 Reference value :  5.25013e-06
 Reference value :  5.25020e-06
 Reference value :  5.25025e-06
 Reference value :  5.25040e-06
 Reference value :  5.25075e-06
 Reference value :  5.25152e-06
 Reference value :  5.25258e-06
 Reference value :  5.25420e-06
 Reference value :  5.25480e-06
 Reference value :  5.25549e-06
 Reference value :  5.25617e-06
 Reference value :  5.25701e-06
 Reference value :  5.25968e-06
 Reference value :  5.26548e-06
 Reference value :  5.28234e-06
 Reference value :  5.33307e-06
 Reference value :  5.48946e-06
 Reference value :  5.50001e-06
 Reference value :  5.50007e-06
 Reference value :  5.50010e-06
 Reference value :  5.50011e-06
 Reference value :  5.50012e-06
 Reference value :  5.50022e-06
 Reference value :  5.50060e-06
 Reference value :  5.50097e-06
 Reference value :  5.50156e-06
 Reference value :  5.50212e-06
 Reference value :  5.50259e-06
 Reference value :  5.50367e-06
 Reference value :  5.50430e-06
 Reference value :  5.50498e-06
 Reference value :  5.50563e-06
 Reference value :  5.50663e-06
 Reference value :  5.50737e-06
 Reference value :  5.50825e-06
 Reference value :  5.50923e-06
 Reference value :  5.51125e-06
 Reference value :  5.51237e-06
 Reference value :  5.51618e-06
 Reference value :  5.53073e-06
 Reference value :  5.58758e-06
 Reference value :  5.75010e-06
 Reference value :  5.75013e-06
 Reference value :  5.75017e-06
 Reference value :  5.75021e-06
 Reference value :  5.75025e-06
 Reference value :  5.75032e-06
 Reference value :  5.75058e-06
 Reference value :  5.75105e-06
 Reference value :  5.75158e-06
 Reference value :  5.75211e-06
 Reference value :  5.75340e-06
 Reference value :  5.75422e-06
 Reference value :  5.75481e-06
 Reference value :  5.75550e-06
 Reference value :  5.75625e-06
 Reference value :  5.75712e-06
 Reference value :  5.75970e-06
 Reference value :  5.76569e-06
 Reference value :  5.78348e-06
 Reference value :  5.83734e-06
 Reference value :  6.00000e-06
 Reference value :  6.00003e-06
 Reference value :  6.00010e-06
 Reference value :  6.00011e-06
 Reference value :  6.00012e-06
 Reference value :  6.00022e-06
 Reference value :  6.00035e-06
 Reference value :  6.00060e-06
 Reference value :  6.00097e-06
 Reference value :  6.00156e-06
 Reference value :  6.00211e-06
 Reference value :  6.00259e-06
 Reference value :  6.00315e-06
 Reference value :  6.00374e-06
 Reference value :  6.00441e-06
 Reference value :  6.00498e-06
 Reference value :  6.00609e-06
 Reference value :  6.00669e-06
 Reference value :  6.00754e-06
 Reference value :  6.00832e-06
 Reference value :  6.00988e-06
 Reference value :  6.01170e-06
 Reference value :  6.01325e-06
 Reference value :  6.01486e-06
 Reference value :  6.01601e-06
 Reference value :  6.01706e-06
 Reference value :  6.01828e-06
 Reference value :  6.01948e-06
 Reference value :  6.02076e-06
 Reference value :  6.02208e-06
 Reference value :  6.02653e-06
 Reference value :  6.03079e-06
 Reference value :  6.04798e-06
 Reference value :  6.07710e-06
 Reference value :  6.15569e-06
 Reference value :  6.25010e-06
 Reference value :  6.25013e-06
 Reference value :  6.25020e-06
 Reference value :  6.25021e-06
 Reference value :  6.25026e-06
 Reference value :  6.25032e-06
 Reference value :  6.25058e-06
 Reference value :  6.25104e-06
 Reference value :  6.25153e-06
 Reference value :  6.25208e-06
 Reference value :  6.25336e-06
 Reference value :  6.25419e-06
 Reference value :  6.25479e-06
 Reference value :  6.25548e-06
 Reference value :  6.25701e-06
 Reference value :  6.25969e-06
 Reference value :  6.26550e-06
 Reference value :  6.27146e-06
 Reference value :  6.30030e-06
 Reference value :  6.33295e-06
 Reference value :  6.48843e-06
 Reference value :  6.50000e-06
 Reference value :  6.50003e-06
 Reference value :  6.50007e-06
 Reference value :  6.50010e-06
 Reference value :  6.50012e-06
 Reference value :  6.50022e-06
 Reference value :  6.50035e-06
 Reference value :  6.50060e-06
 Reference value :  6.50097e-06
 Reference value :  6.50156e-06
 Reference value :  6.50212e-06
 Reference value :  6.50259e-06
 Reference value :  6.50315e-06
 Reference value :  6.50366e-06
 Reference value :  6.50430e-06
 Reference value :  6.50562e-06
 Reference value :  6.50662e-06
 Reference value :  6.50736e-06
 Reference value :  6.50825e-06
 Reference value :  6.50923e-06
 Reference value :  6.51028e-06
 Reference value :  6.51126e-06
 Reference value :  6.51238e-06
 Reference value :  6.51619e-06
 Reference value :  6.53070e-06
 Reference value :  6.54956e-06
 Reference value :  6.66271e-06
 Reference value :  6.75011e-06
 Reference value :  6.75017e-06
 Reference value :  6.75020e-06
 Reference value :  6.75022e-06
 Reference value :  6.75032e-06
 Reference value :  6.75058e-06
 Reference value :  6.75105e-06
 Reference value :  6.75158e-06
 Reference value :  6.75211e-06
 Reference value :  6.75266e-06
 Reference value :  6.75340e-06
 Reference value :  6.75421e-06
 Reference value :  6.75481e-06
 Reference value :  6.75549e-06
 Reference value :  6.75625e-06
 Reference value :  6.75710e-06
 Reference value :  6.75805e-06
 Reference value :  6.76217e-06
 Reference value :  6.76560e-06
 Reference value :  6.78331e-06
 Reference value :  6.80234e-06
 Reference value :  6.89558e-06
 Reference value :  7.00000e-06
 Reference value :  7.00003e-06
 Reference value :  7.00007e-06
 Reference value :  7.00011e-06
 Reference value :  7.00016e-06
 Reference value :  7.00035e-06
 Reference value :  7.00060e-06
 Reference value :  7.00097e-06
 Reference value :  7.00156e-06
 Reference value :  7.00259e-06
 Reference value :  7.00315e-06
 Reference value :  7.00374e-06
 Reference value :  7.00441e-06
 Reference value :  7.00498e-06
 Reference value :  7.00559e-06
 Reference value :  7.00609e-06
 Reference value :  7.00669e-06
 Reference value :  7.00754e-06
 Reference value :  7.00832e-06
 Reference value :  7.00988e-06
 Reference value :  7.01170e-06
 Reference value :  7.01325e-06
 Reference value :  7.01486e-06
 Reference value :  7.01601e-06
 Reference value :  7.01706e-06
 Reference value :  7.01826e-06
 Reference value :  7.01946e-06
 Reference value :  7.02075e-06
 Reference value :  7.02206e-06
 Reference value :  7.02440e-06
 Reference value :  7.02651e-06
 Reference value :  7.03075e-06
 Reference value :  7.03698e-06
 Reference value :  7.04723e-06
 Reference value :  7.06654e-06
 Reference value :  7.10067e-06
 Reference value :  7.14076e-06
 Reference value :  7.19965e-06
 Reference value :  7.25010e-06
 Reference value :  7.25013e-06
 Reference value :  7.25017e-06
 Reference value :  7.25021e-06
 Reference value :  7.25025e-06
 Reference value :  7.25040e-06
 Reference value :  7.25075e-06
 Reference value :  7.25152e-06
 Reference value :  7.25208e-06
 Reference value :  7.25258e-06
 Reference value :  7.25336e-06
 Reference value :  7.25419e-06
 Reference value :  7.25479e-06
 Reference value :  7.25548e-06
 Reference value :  7.25616e-06
 Reference value :  7.25701e-06
 Reference value :  7.25791e-06
 Reference value :  7.26199e-06
 Reference value :  7.27144e-06
 Reference value :  7.30017e-06
 Reference value :  7.38861e-06
 Reference value :  7.50000e-06
 Reference value :  7.50001e-06
 Reference value :  7.50003e-06
 Reference value :  7.50010e-06
 Reference value :  7.50012e-06
 Reference value :  7.50022e-06
 Reference value :  7.50060e-06
 Reference value :  7.50097e-06
 Reference value :  7.50156e-06
 Reference value :  7.50259e-06
 Reference value :  7.50315e-06
 Reference value :  7.50366e-06
 Reference value :  7.50430e-06
 Reference value :  7.50497e-06
 Reference value :  7.50562e-06
 Reference value :  7.50662e-06
 Reference value :  7.50736e-06
 Reference value :  7.50825e-06
 Reference value :  7.50923e-06
 Reference value :  7.51028e-06
 Reference value :  7.51126e-06
 Reference value :  7.51238e-06
 Reference value :  7.51365e-06
 Reference value :  7.51619e-06
 Reference value :  7.52127e-06
 Reference value :  7.53065e-06
 Reference value :  7.54942e-06
 Reference value :  7.58696e-06
 Reference value :  7.66204e-06
 Reference value :  7.75010e-06
 Reference value :  7.75011e-06
 Reference value :  7.75013e-06
 Reference value :  7.75017e-06
 Reference value :  7.75020e-06
 Reference value :  7.75021e-06
 Reference value :  7.75025e-06
 Reference value :  7.75040e-06
 Reference value :  7.75058e-06
 Reference value :  7.75078e-06
 Reference value :  7.75158e-06
 Reference value :  7.75211e-06
 Reference value :  7.75266e-06
 Reference value :  7.75340e-06
 Reference value :  7.75481e-06
 Reference value :  7.75549e-06
 Reference value :  7.75624e-06
 Reference value :  7.75805e-06
 Reference value :  7.75966e-06
 Reference value :  7.76216e-06
 Reference value :  7.77220e-06
 Reference value :  7.80220e-06
 Reference value :  7.89494e-06
 Reference value :  8.00000e-06
 Reference value :  8.00003e-06
 Reference value :  8.00007e-06
 Reference value :  8.00011e-06
 Reference value :  8.00016e-06
 Reference value :  8.00035e-06
 Reference value :  8.00060e-06
 Reference value :  8.00097e-06
 Reference value :  8.00156e-06
 Reference value :  8.00211e-06
 Reference value :  8.00259e-06
 Reference value :  8.00315e-06
 Reference value :  8.00374e-06
 Reference value :  8.00497e-06
 Reference value :  8.00558e-06
 Reference value :  8.00609e-06
 Reference value :  8.00668e-06
 Reference value :  8.00831e-06
 Reference value :  8.00912e-06
 Reference value :  8.01003e-06
 Reference value :  8.01109e-06
 Reference value :  8.01451e-06
 Reference value :  8.02765e-06
 Reference value :  8.07914e-06
 Reference value :  8.25010e-06
 Reference value :  8.25013e-06
 Reference value :  8.25020e-06
 Reference value :  8.25022e-06
 Reference value :  8.25026e-06
 Reference value :  8.25044e-06
 Reference value :  8.25081e-06
 Reference value :  8.25167e-06
 Reference value :  8.25219e-06
 Reference value :  8.25275e-06
 Reference value :  8.25350e-06
 Reference value :  8.25438e-06
 Reference value :  8.25531e-06
 Reference value :  8.25628e-06
 Reference value :  8.25732e-06
 Reference value :  8.25896e-06
 Reference value :  8.26357e-06
 Reference value :  8.27420e-06
 Reference value :  8.30621e-06
 Reference value :  8.42856e-06
No. of Data Rows : 1272
ngspice-44 done
