
Note: Compatibility modes selected: hs a


Circuit: ** sch_path: /home/ece/cace/sar-adc-using-sky130-pdk/runs/run_2025-09-13_21-32-59/parameters/dnl/run_0/sar_output_dnl.sch

option SCALE: Scale is set to 1e-06 for instance and model parameters
option SCALE: Scale is set to 1e-06 for instance and model parameters
option SCALE: Scale is set to 1e-06 for instance and model parameters
option SCALE: Scale is set to 1e-06 for instance and model parameters
Doing analysis at TEMP = -75.000000 and TNOM = 27.000000

Using KLU as Direct Linear Solver
Operating point simulation skipped by 'uic',
  now using transient initial conditions.
 Reference value :  1.00000e-12
 Reference value :  1.02765e-12
 Reference value :  1.08295e-12
 Reference value :  1.19356e-12
 Reference value :  1.33771e-12
 Reference value :  1.62601e-12
 Reference value :  2.20261e-12
 Reference value :  3.05206e-12
 Reference value :  3.95841e-12
 Reference value :  5.17498e-12
 Reference value :  6.90108e-12
 Reference value :  9.92356e-12
 Reference value :  1.34732e-11
 Reference value :  2.02353e-11
 Reference value :  2.70251e-11
 Reference value :  3.59921e-11
 Reference value :  4.72497e-11
 Reference value :  6.23290e-11
 Reference value :  8.33883e-11
 Reference value :  1.00000e-10
 Reference value :  1.01350e-10
 Reference value :  1.04049e-10
 Reference value :  1.09447e-10
 Reference value :  1.20243e-10
 Reference value :  1.41836e-10
 Reference value :  1.85022e-10
 Reference value :  2.71393e-10
 Reference value :  4.22937e-10
 Reference value :  5.96092e-10
 Reference value :  8.71358e-10
 Reference value :  1.23234e-09
 Reference value :  1.60678e-09
 Reference value :  2.23647e-09
 Reference value :  2.89428e-09
 Reference value :  3.75387e-09
 Reference value :  4.55509e-09
 Reference value :  5.37534e-09
 Reference value :  6.33897e-09
 Reference value :  7.23022e-09
 Reference value :  8.48457e-09
 Reference value :  9.76744e-09
 Reference value :  1.09694e-08
 Reference value :  1.17533e-08
 Reference value :  1.26046e-08
 Reference value :  1.35676e-08
 Reference value :  1.44907e-08
 Reference value :  1.59866e-08
 Reference value :  1.77312e-08
 Reference value :  2.04173e-08
 Reference value :  2.33582e-08
 Reference value :  2.69129e-08
 Reference value :  3.03198e-08
 Reference value :  3.39964e-08
 Reference value :  3.81023e-08
 Reference value :  4.23138e-08
 Reference value :  4.77695e-08
 Reference value :  5.47136e-08
 Reference value :  6.35441e-08
 Reference value :  7.67602e-08
 Reference value :  9.63045e-08
 Reference value :  1.27290e-07
 Reference value :  1.79566e-07
 Reference value :  2.50100e-07
 Reference value :  2.50110e-07
 Reference value :  2.50130e-07
 Reference value :  2.50170e-07
 Reference value :  2.50200e-07
 Reference value :  2.50201e-07
 Reference value :  2.50202e-07
 Reference value :  2.50204e-07
 Reference value :  2.50209e-07
 Reference value :  2.50218e-07
 Reference value :  2.50237e-07
 Reference value :  2.50274e-07
 Reference value :  2.50335e-07
 Reference value :  2.50449e-07
 Reference value :  2.50559e-07
 Reference value :  2.50776e-07
 Reference value :  2.51029e-07
 Reference value :  2.51467e-07
 Reference value :  2.51874e-07
 Reference value :  2.52431e-07
 Reference value :  2.53009e-07
 Reference value :  2.53760e-07
 Reference value :  2.54455e-07
 Reference value :  2.55211e-07
 Reference value :  2.55900e-07
 Reference value :  2.56691e-07
 Reference value :  2.57560e-07
 Reference value :  2.58703e-07
 Reference value :  2.60340e-07
 Reference value :  2.62489e-07
 Reference value :  2.65266e-07
 Reference value :  2.70819e-07
 Reference value :  2.81926e-07
 Reference value :  3.03955e-07
 Reference value :  3.48013e-07
 Reference value :  4.36128e-07
 Reference value :  5.00000e-07
 Reference value :  5.00010e-07
 Reference value :  5.00030e-07
 Reference value :  5.00070e-07
 Reference value :  5.00100e-07
 Reference value :  5.00104e-07
 Reference value :  5.00113e-07
 Reference value :  5.00131e-07
 Reference value :  5.00166e-07
 Reference value :  5.00237e-07
 Reference value :  5.00368e-07
 Reference value :  5.00605e-07
 Reference value :  5.01006e-07
 Reference value :  5.01470e-07
 Reference value :  5.01983e-07
 Reference value :  5.02454e-07
 Reference value :  5.02998e-07
 Reference value :  5.03547e-07
 Reference value :  5.04287e-07
 Reference value :  5.05040e-07
 Reference value :  5.05759e-07
 Reference value :  5.06831e-07
 Reference value :  5.07881e-07
 Reference value :  5.09445e-07
 Reference value :  5.11329e-07
 Reference value :  5.12701e-07
 Reference value :  5.14216e-07
 Reference value :  5.15967e-07
 Reference value :  5.17535e-07
 Reference value :  5.19201e-07
 Reference value :  5.21422e-07
 Reference value :  5.23732e-07
 Reference value :  5.27604e-07
 Reference value :  5.34055e-07
 Reference value :  5.43204e-07
 Reference value :  5.61503e-07
 Reference value :  5.97053e-07
 Reference value :  6.57976e-07
 Reference value :  7.50100e-07
 Reference value :  7.50110e-07
 Reference value :  7.50130e-07
 Reference value :  7.50170e-07
 Reference value :  7.50200e-07
 Reference value :  7.50201e-07
 Reference value :  7.50203e-07
 Reference value :  7.50206e-07
 Reference value :  7.50213e-07
 Reference value :  7.50227e-07
 Reference value :  7.50255e-07
 Reference value :  7.50310e-07
 Reference value :  7.50421e-07
 Reference value :  7.50642e-07
 Reference value :  7.50968e-07
 Reference value :  7.51309e-07
 Reference value :  7.51788e-07
 Reference value :  7.52295e-07
 Reference value :  7.53020e-07
 Reference value :  7.53842e-07
 Reference value :  7.54480e-07
 Reference value :  7.55200e-07
 Reference value :  7.55820e-07
 Reference value :  7.56505e-07
 Reference value :  7.57287e-07
 Reference value :  7.58165e-07
 Reference value :  7.59757e-07
 Reference value :  7.61984e-07
 Reference value :  7.64763e-07
 Reference value :  7.70319e-07
 Reference value :  7.81432e-07
 Reference value :  8.03659e-07
 Reference value :  8.48111e-07
 Reference value :  9.37016e-07
 Reference value :  1.00000e-06
 Reference value :  1.00001e-06
 Reference value :  1.00003e-06
 Reference value :  1.00007e-06
 Reference value :  1.00010e-06
 Reference value :  1.00010e-06
 Reference value :  1.00011e-06
 Reference value :  1.00013e-06
 Reference value :  1.00017e-06
 Reference value :  1.00024e-06
 Reference value :  1.00037e-06
 Reference value :  1.00060e-06
 Reference value :  1.00101e-06
 Reference value :  1.00147e-06
 Reference value :  1.00198e-06
 Reference value :  1.00245e-06
 Reference value :  1.00300e-06
 Reference value :  1.00352e-06
 Reference value :  1.00428e-06
 Reference value :  1.00487e-06
 Reference value :  1.00551e-06
 Reference value :  1.00628e-06
 Reference value :  1.00711e-06
 Reference value :  1.00781e-06
 Reference value :  1.00860e-06
 Reference value :  1.00970e-06
 Reference value :  1.01084e-06
 Reference value :  1.01256e-06
 Reference value :  1.01455e-06
 Reference value :  1.01614e-06
 Reference value :  1.01759e-06
 Reference value :  1.01868e-06
 Reference value :  1.01971e-06
 Reference value :  1.02060e-06
 Reference value :  1.02162e-06
 Reference value :  1.02270e-06
 Reference value :  1.02416e-06
 Reference value :  1.02579e-06
 Reference value :  1.02856e-06
 Reference value :  1.03325e-06
 Reference value :  1.04044e-06
 Reference value :  1.05345e-06
 Reference value :  1.07145e-06
 Reference value :  1.10097e-06
 Reference value :  1.13637e-06
 Reference value :  1.17036e-06
 Reference value :  1.18424e-06
 Reference value :  1.19840e-06
 Reference value :  1.20826e-06
 Reference value :  1.21815e-06
 Reference value :  1.22858e-06
 Reference value :  1.23882e-06
 Reference value :  1.25010e-06
 Reference value :  1.25011e-06
 Reference value :  1.25013e-06
 Reference value :  1.25017e-06
 Reference value :  1.25020e-06
 Reference value :  1.25020e-06
 Reference value :  1.25020e-06
 Reference value :  1.25021e-06
 Reference value :  1.25021e-06
 Reference value :  1.25023e-06
 Reference value :  1.25025e-06
 Reference value :  1.25031e-06
 Reference value :  1.25042e-06
 Reference value :  1.25064e-06
 Reference value :  1.25097e-06
 Reference value :  1.25131e-06
 Reference value :  1.25179e-06
 Reference value :  1.25229e-06
 Reference value :  1.25294e-06
 Reference value :  1.25378e-06
 Reference value :  1.25440e-06
 Reference value :  1.25510e-06
 Reference value :  1.25574e-06
 Reference value :  1.25644e-06
 Reference value :  1.25749e-06
 Reference value :  1.25858e-06
 Reference value :  1.26027e-06
 Reference value :  1.26262e-06
 Reference value :  1.26568e-06
 Reference value :  1.27181e-06
 Reference value :  1.28391e-06
 Reference value :  1.30415e-06
 Reference value :  1.34463e-06
 Reference value :  1.41911e-06
 Reference value :  1.50000e-06
 Reference value :  1.50001e-06
 Reference value :  1.50003e-06
 Reference value :  1.50007e-06
 Reference value :  1.50010e-06
 Reference value :  1.50010e-06
 Reference value :  1.50011e-06
 Reference value :  1.50013e-06
 Reference value :  1.50017e-06
 Reference value :  1.50024e-06
 Reference value :  1.50036e-06
 Reference value :  1.50058e-06
 Reference value :  1.50099e-06
 Reference value :  1.50147e-06
 Reference value :  1.50198e-06
 Reference value :  1.50242e-06
 Reference value :  1.50293e-06
 Reference value :  1.50343e-06
 Reference value :  1.50411e-06
 Reference value :  1.50480e-06
 Reference value :  1.50548e-06
 Reference value :  1.50646e-06
 Reference value :  1.50746e-06
 Reference value :  1.50914e-06
 Reference value :  1.51017e-06
 Reference value :  1.51134e-06
 Reference value :  1.51233e-06
 Reference value :  1.51348e-06
 Reference value :  1.51474e-06
 Reference value :  1.51616e-06
 Reference value :  1.51894e-06
 Reference value :  1.52282e-06
 Reference value :  1.53051e-06
 Reference value :  1.54371e-06
 Reference value :  1.56742e-06
 Reference value :  1.61484e-06
 Reference value :  1.70788e-06
 Reference value :  1.75010e-06
 Reference value :  1.75011e-06
 Reference value :  1.75013e-06
 Reference value :  1.75017e-06
 Reference value :  1.75020e-06
 Reference value :  1.75020e-06
 Reference value :  1.75020e-06
 Reference value :  1.75021e-06
 Reference value :  1.75021e-06
 Reference value :  1.75023e-06
 Reference value :  1.75025e-06
 Reference value :  1.75031e-06
 Reference value :  1.75042e-06
 Reference value :  1.75064e-06
 Reference value :  1.75096e-06
 Reference value :  1.75130e-06
 Reference value :  1.75177e-06
 Reference value :  1.75227e-06
 Reference value :  1.75295e-06
 Reference value :  1.75376e-06
 Reference value :  1.75440e-06
 Reference value :  1.75513e-06
 Reference value :  1.75580e-06
 Reference value :  1.75650e-06
 Reference value :  1.75730e-06
 Reference value :  1.75821e-06
 Reference value :  1.75911e-06
 Reference value :  1.76043e-06
 Reference value :  1.76168e-06
 Reference value :  1.76357e-06
 Reference value :  1.76593e-06
 Reference value :  1.76928e-06
 Reference value :  1.77587e-06
 Reference value :  1.78451e-06
 Reference value :  1.79997e-06
 Reference value :  1.83055e-06
 Reference value :  1.88088e-06
 Reference value :  1.98155e-06
 Reference value :  2.00000e-06
 Reference value :  2.00001e-06
 Reference value :  2.00003e-06
 Reference value :  2.00007e-06
 Reference value :  2.00010e-06
 Reference value :  2.00010e-06
 Reference value :  2.00011e-06
 Reference value :  2.00013e-06
 Reference value :  2.00017e-06
 Reference value :  2.00024e-06
 Reference value :  2.00036e-06
 Reference value :  2.00058e-06
 Reference value :  2.00099e-06
 Reference value :  2.00147e-06
 Reference value :  2.00198e-06
 Reference value :  2.00243e-06
 Reference value :  2.00298e-06
 Reference value :  2.00348e-06
 Reference value :  2.00419e-06
 Reference value :  2.00485e-06
 Reference value :  2.00550e-06
 Reference value :  2.00631e-06
 Reference value :  2.00712e-06
 Reference value :  2.00782e-06
 Reference value :  2.00856e-06
 Reference value :  2.00955e-06
 Reference value :  2.01059e-06
 Reference value :  2.01206e-06
 Reference value :  2.01358e-06
 Reference value :  2.01497e-06
 Reference value :  2.01635e-06
 Reference value :  2.01749e-06
 Reference value :  2.01832e-06
 Reference value :  2.01920e-06
 Reference value :  2.02008e-06
 Reference value :  2.02111e-06
 Reference value :  2.02225e-06
 Reference value :  2.02343e-06
 Reference value :  2.02539e-06
 Reference value :  2.02725e-06
 Reference value :  2.03096e-06
 Reference value :  2.03839e-06
 Reference value :  2.05008e-06
 Reference value :  2.06721e-06
 Reference value :  2.08681e-06
 Reference value :  2.10094e-06
 Reference value :  2.11197e-06
 Reference value :  2.12208e-06
 Reference value :  2.13259e-06
 Reference value :  2.14352e-06
 Reference value :  2.16102e-06
 Reference value :  2.17903e-06
 Reference value :  2.20467e-06
 Reference value :  2.23623e-06
 Reference value :  2.25010e-06
 Reference value :  2.25011e-06
 Reference value :  2.25013e-06
 Reference value :  2.25017e-06
 Reference value :  2.25020e-06
 Reference value :  2.25020e-06
 Reference value :  2.25020e-06
 Reference value :  2.25021e-06
 Reference value :  2.25021e-06
 Reference value :  2.25023e-06
 Reference value :  2.25025e-06
 Reference value :  2.25031e-06
 Reference value :  2.25042e-06
 Reference value :  2.25064e-06
 Reference value :  2.25097e-06
 Reference value :  2.25131e-06
 Reference value :  2.25179e-06
 Reference value :  2.25229e-06
 Reference value :  2.25296e-06
 Reference value :  2.25378e-06
 Reference value :  2.25443e-06
 Reference value :  2.25516e-06
 Reference value :  2.25583e-06
 Reference value :  2.25655e-06
 Reference value :  2.25762e-06
 Reference value :  2.25873e-06
 Reference value :  2.26048e-06
 Reference value :  2.26284e-06
 Reference value :  2.26616e-06
 Reference value :  2.27280e-06
 Reference value :  2.28492e-06
 Reference value :  2.30623e-06
 Reference value :  2.34766e-06
 Reference value :  2.42158e-06
 Reference value :  2.49134e-06
 Reference value :  2.50000e-06
 Reference value :  2.50001e-06
 Reference value :  2.50003e-06
 Reference value :  2.50007e-06
 Reference value :  2.50010e-06
 Reference value :  2.50010e-06
 Reference value :  2.50011e-06
 Reference value :  2.50013e-06
 Reference value :  2.50017e-06
 Reference value :  2.50024e-06
 Reference value :  2.50036e-06
 Reference value :  2.50058e-06
 Reference value :  2.50098e-06
 Reference value :  2.50146e-06
 Reference value :  2.50197e-06
 Reference value :  2.50243e-06
 Reference value :  2.50298e-06
 Reference value :  2.50348e-06
 Reference value :  2.50415e-06
 Reference value :  2.50484e-06
 Reference value :  2.50556e-06
 Reference value :  2.50652e-06
 Reference value :  2.50757e-06
 Reference value :  2.50900e-06
 Reference value :  2.50997e-06
 Reference value :  2.51106e-06
 Reference value :  2.51197e-06
 Reference value :  2.51306e-06
 Reference value :  2.51416e-06
 Reference value :  2.51545e-06
 Reference value :  2.51803e-06
 Reference value :  2.52236e-06
 Reference value :  2.53014e-06
 Reference value :  2.54547e-06
 Reference value :  2.57309e-06
 Reference value :  2.62831e-06
 Reference value :  2.73877e-06
 Reference value :  2.75010e-06
 Reference value :  2.75011e-06
 Reference value :  2.75013e-06
 Reference value :  2.75017e-06
 Reference value :  2.75020e-06
 Reference value :  2.75020e-06
 Reference value :  2.75020e-06
 Reference value :  2.75021e-06
 Reference value :  2.75021e-06
 Reference value :  2.75023e-06
 Reference value :  2.75025e-06
 Reference value :  2.75031e-06
 Reference value :  2.75042e-06
 Reference value :  2.75064e-06
 Reference value :  2.75096e-06
 Reference value :  2.75130e-06
 Reference value :  2.75177e-06
 Reference value :  2.75228e-06
 Reference value :  2.75295e-06
 Reference value :  2.75376e-06
 Reference value :  2.75440e-06
 Reference value :  2.75514e-06
 Reference value :  2.75579e-06
 Reference value :  2.75649e-06
 Reference value :  2.75729e-06
 Reference value :  2.75819e-06
 Reference value :  2.75978e-06
 Reference value :  2.76202e-06
 Reference value :  2.76481e-06
 Reference value :  2.77039e-06
 Reference value :  2.78154e-06
 Reference value :  2.80076e-06
 Reference value :  2.83920e-06
 Reference value :  2.91139e-06
 Reference value :  3.00000e-06
 Reference value :  3.00001e-06
 Reference value :  3.00003e-06
 Reference value :  3.00007e-06
 Reference value :  3.00010e-06
 Reference value :  3.00010e-06
 Reference value :  3.00011e-06
 Reference value :  3.00013e-06
 Reference value :  3.00017e-06
 Reference value :  3.00024e-06
 Reference value :  3.00036e-06
 Reference value :  3.00058e-06
 Reference value :  3.00099e-06
 Reference value :  3.00147e-06
 Reference value :  3.00198e-06
 Reference value :  3.00244e-06
 Reference value :  3.00298e-06
 Reference value :  3.00349e-06
 Reference value :  3.00415e-06
 Reference value :  3.00483e-06
 Reference value :  3.00545e-06
 Reference value :  3.00633e-06
 Reference value :  3.00713e-06
 Reference value :  3.00782e-06
 Reference value :  3.00859e-06
 Reference value :  3.00973e-06
 Reference value :  3.01080e-06
 Reference value :  3.01279e-06
 Reference value :  3.01460e-06
 Reference value :  3.01618e-06
 Reference value :  3.01748e-06
 Reference value :  3.01874e-06
 Reference value :  3.02000e-06
 Reference value :  3.02110e-06
 Reference value :  3.02227e-06
 Reference value :  3.02355e-06
 Reference value :  3.02533e-06
 Reference value :  3.02723e-06
 Reference value :  3.03102e-06
 Reference value :  3.03603e-06
 Reference value :  3.04123e-06
 Reference value :  3.04470e-06
 Reference value :  3.04961e-06
 Reference value :  3.05519e-06
 Reference value :  3.06033e-06
 Reference value :  3.06372e-06
 Reference value :  3.06774e-06
 Reference value :  3.07260e-06
 Reference value :  3.07764e-06
 Reference value :  3.08543e-06
 Reference value :  3.09274e-06
 Reference value :  3.10022e-06
 Reference value :  3.10920e-06
 Reference value :  3.12407e-06
 Reference value :  3.14591e-06
 Reference value :  3.17955e-06
 Reference value :  3.22205e-06
 Reference value :  3.25010e-06
 Reference value :  3.25011e-06
 Reference value :  3.25013e-06
 Reference value :  3.25017e-06
 Reference value :  3.25020e-06
 Reference value :  3.25020e-06
 Reference value :  3.25020e-06
 Reference value :  3.25021e-06
 Reference value :  3.25021e-06
 Reference value :  3.25023e-06
 Reference value :  3.25025e-06
 Reference value :  3.25031e-06
 Reference value :  3.25042e-06
 Reference value :  3.25064e-06
 Reference value :  3.25096e-06
 Reference value :  3.25130e-06
 Reference value :  3.25177e-06
 Reference value :  3.25228e-06
 Reference value :  3.25295e-06
 Reference value :  3.25377e-06
 Reference value :  3.25438e-06
 Reference value :  3.25507e-06
 Reference value :  3.25570e-06
 Reference value :  3.25639e-06
 Reference value :  3.25742e-06
 Reference value :  3.25849e-06
 Reference value :  3.26017e-06
 Reference value :  3.26251e-06
 Reference value :  3.26548e-06
 Reference value :  3.27143e-06
 Reference value :  3.28327e-06
 Reference value :  3.30280e-06
 Reference value :  3.34186e-06
 Reference value :  3.41359e-06
 Reference value :  3.50000e-06
 Reference value :  3.50001e-06
 Reference value :  3.50003e-06
 Reference value :  3.50007e-06
 Reference value :  3.50010e-06
 Reference value :  3.50010e-06
 Reference value :  3.50011e-06
 Reference value :  3.50013e-06
 Reference value :  3.50017e-06
 Reference value :  3.50024e-06
 Reference value :  3.50036e-06
 Reference value :  3.50058e-06
 Reference value :  3.50099e-06
 Reference value :  3.50147e-06
 Reference value :  3.50198e-06
 Reference value :  3.50242e-06
 Reference value :  3.50293e-06
 Reference value :  3.50343e-06
 Reference value :  3.50410e-06
 Reference value :  3.50479e-06
 Reference value :  3.50546e-06
 Reference value :  3.50644e-06
 Reference value :  3.50741e-06
 Reference value :  3.50912e-06
 Reference value :  3.51015e-06
 Reference value :  3.51133e-06
 Reference value :  3.51251e-06
 Reference value :  3.51377e-06
 Reference value :  3.51559e-06
 Reference value :  3.51747e-06
 Reference value :  3.52094e-06
 Reference value :  3.52585e-06
 Reference value :  3.53415e-06
 Reference value :  3.54875e-06
 Reference value :  3.57279e-06
 Reference value :  3.61628e-06
 Reference value :  3.69104e-06
 Reference value :  3.75010e-06
 Reference value :  3.75011e-06
 Reference value :  3.75013e-06
 Reference value :  3.75017e-06
 Reference value :  3.75020e-06
 Reference value :  3.75020e-06
 Reference value :  3.75020e-06
 Reference value :  3.75021e-06
 Reference value :  3.75021e-06
 Reference value :  3.75023e-06
 Reference value :  3.75025e-06
 Reference value :  3.75031e-06
 Reference value :  3.75042e-06
 Reference value :  3.75064e-06
 Reference value :  3.75096e-06
 Reference value :  3.75130e-06
 Reference value :  3.75178e-06
 Reference value :  3.75228e-06
 Reference value :  3.75295e-06
 Reference value :  3.75377e-06
 Reference value :  3.75440e-06
 Reference value :  3.75512e-06
 Reference value :  3.75578e-06
 Reference value :  3.75647e-06
 Reference value :  3.75727e-06
 Reference value :  3.75817e-06
 Reference value :  3.75903e-06
 Reference value :  3.76021e-06
 Reference value :  3.76143e-06
 Reference value :  3.76322e-06
 Reference value :  3.76554e-06
 Reference value :  3.76853e-06
 Reference value :  3.77416e-06
 Reference value :  3.78135e-06
 Reference value :  3.79343e-06
 Reference value :  3.81504e-06
 Reference value :  3.85079e-06
 Reference value :  3.91371e-06
 Reference value :  4.00000e-06
 Reference value :  4.00001e-06
 Reference value :  4.00003e-06
 Reference value :  4.00007e-06
 Reference value :  4.00010e-06
 Reference value :  4.00010e-06
 Reference value :  4.00011e-06
 Reference value :  4.00013e-06
 Reference value :  4.00017e-06
 Reference value :  4.00024e-06
 Reference value :  4.00036e-06
 Reference value :  4.00058e-06
 Reference value :  4.00099e-06
 Reference value :  4.00147e-06
 Reference value :  4.00198e-06
 Reference value :  4.00243e-06
 Reference value :  4.00297e-06
 Reference value :  4.00348e-06
 Reference value :  4.00419e-06
 Reference value :  4.00484e-06
 Reference value :  4.00549e-06
 Reference value :  4.00632e-06
 Reference value :  4.00712e-06
 Reference value :  4.00786e-06
 Reference value :  4.00864e-06
 Reference value :  4.00971e-06
 Reference value :  4.01089e-06
 Reference value :  4.01179e-06
 Reference value :  4.01286e-06
 Reference value :  4.01391e-06
 Reference value :  4.01498e-06
 Reference value :  4.01610e-06
 Reference value :  4.01692e-06
 Reference value :  4.01771e-06
 Reference value :  4.01880e-06
 Reference value :  4.01982e-06
 Reference value :  4.02088e-06
 Reference value :  4.02200e-06
 Reference value :  4.02312e-06
 Reference value :  4.02472e-06
 Reference value :  4.02647e-06
 Reference value :  4.02987e-06
 Reference value :  4.03443e-06
 Reference value :  4.04192e-06
 Reference value :  4.04893e-06
 Reference value :  4.05575e-06
 Reference value :  4.05910e-06
 Reference value :  4.06238e-06
 Reference value :  4.06578e-06
 Reference value :  4.07101e-06
 Reference value :  4.07751e-06
 Reference value :  4.08663e-06
 Reference value :  4.09966e-06
 Reference value :  4.11756e-06
 Reference value :  4.13888e-06
 Reference value :  4.16554e-06
 Reference value :  4.21337e-06
 Reference value :  4.25010e-06
 Reference value :  4.25011e-06
 Reference value :  4.25013e-06
 Reference value :  4.25017e-06
 Reference value :  4.25020e-06
 Reference value :  4.25020e-06
 Reference value :  4.25020e-06
 Reference value :  4.25021e-06
 Reference value :  4.25021e-06
 Reference value :  4.25023e-06
 Reference value :  4.25025e-06
 Reference value :  4.25031e-06
 Reference value :  4.25042e-06
 Reference value :  4.25064e-06
 Reference value :  4.25096e-06
 Reference value :  4.25130e-06
 Reference value :  4.25178e-06
 Reference value :  4.25228e-06
 Reference value :  4.25296e-06
 Reference value :  4.25377e-06
 Reference value :  4.25441e-06
 Reference value :  4.25514e-06
 Reference value :  4.25580e-06
 Reference value :  4.25653e-06
 Reference value :  4.25759e-06
 Reference value :  4.25869e-06
 Reference value :  4.26041e-06
 Reference value :  4.26280e-06
 Reference value :  4.26599e-06
 Reference value :  4.27237e-06
 Reference value :  4.28410e-06
 Reference value :  4.30417e-06
 Reference value :  4.32194e-06
 Reference value :  4.33468e-06
 Reference value :  4.34716e-06
 Reference value :  4.36346e-06
 Reference value :  4.38034e-06
 Reference value :  4.39430e-06
 Reference value :  4.41052e-06
 Reference value :  4.43209e-06
 Reference value :  4.45904e-06
 Reference value :  4.49745e-06
 Reference value :  4.50000e-06
 Reference value :  4.50001e-06
 Reference value :  4.50003e-06
 Reference value :  4.50007e-06
 Reference value :  4.50010e-06
 Reference value :  4.50010e-06
 Reference value :  4.50011e-06
 Reference value :  4.50013e-06
 Reference value :  4.50017e-06
 Reference value :  4.50024e-06
 Reference value :  4.50036e-06
 Reference value :  4.50058e-06
 Reference value :  4.50099e-06
 Reference value :  4.50147e-06
 Reference value :  4.50198e-06
 Reference value :  4.50242e-06
 Reference value :  4.50293e-06
 Reference value :  4.50343e-06
 Reference value :  4.50411e-06
 Reference value :  4.50480e-06
 Reference value :  4.50547e-06
 Reference value :  4.50646e-06
 Reference value :  4.50743e-06
 Reference value :  4.50887e-06
 Reference value :  4.50980e-06
 Reference value :  4.51087e-06
 Reference value :  4.51192e-06
 Reference value :  4.51306e-06
 Reference value :  4.51450e-06
 Reference value :  4.51604e-06
 Reference value :  4.51887e-06
 Reference value :  4.52286e-06
 Reference value :  4.52995e-06
 Reference value :  4.54258e-06
 Reference value :  4.56417e-06
 Reference value :  4.60450e-06
 Reference value :  4.67583e-06
 Reference value :  4.75010e-06
 Reference value :  4.75011e-06
 Reference value :  4.75013e-06
 Reference value :  4.75017e-06
 Reference value :  4.75020e-06
 Reference value :  4.75020e-06
 Reference value :  4.75020e-06
 Reference value :  4.75021e-06
 Reference value :  4.75021e-06
 Reference value :  4.75023e-06
 Reference value :  4.75025e-06
 Reference value :  4.75031e-06
 Reference value :  4.75042e-06
 Reference value :  4.75064e-06
 Reference value :  4.75096e-06
 Reference value :  4.75130e-06
 Reference value :  4.75178e-06
 Reference value :  4.75228e-06
 Reference value :  4.75295e-06
 Reference value :  4.75376e-06
 Reference value :  4.75439e-06
 Reference value :  4.75511e-06
 Reference value :  4.75576e-06
 Reference value :  4.75644e-06
 Reference value :  4.75725e-06
 Reference value :  4.75814e-06
 Reference value :  4.75901e-06
 Reference value :  4.76019e-06
 Reference value :  4.76140e-06
 Reference value :  4.76319e-06
 Reference value :  4.76551e-06
 Reference value :  4.76850e-06
 Reference value :  4.77430e-06
 Reference value :  4.78170e-06
 Reference value :  4.79436e-06
 Reference value :  4.81716e-06
 Reference value :  4.85545e-06
 Reference value :  4.92359e-06
 Reference value :  5.00000e-06
 Reference value :  5.00001e-06
 Reference value :  5.00003e-06
 Reference value :  5.00007e-06
 Reference value :  5.00010e-06
 Reference value :  5.00010e-06
 Reference value :  5.00011e-06
 Reference value :  5.00013e-06
 Reference value :  5.00017e-06
 Reference value :  5.00024e-06
 Reference value :  5.00036e-06
 Reference value :  5.00058e-06
 Reference value :  5.00099e-06
 Reference value :  5.00146e-06
 Reference value :  5.00198e-06
 Reference value :  5.00243e-06
 Reference value :  5.00297e-06
 Reference value :  5.00348e-06
 Reference value :  5.00419e-06
 Reference value :  5.00484e-06
 Reference value :  5.00548e-06
 Reference value :  5.00633e-06
 Reference value :  5.00713e-06
 Reference value :  5.00789e-06
 Reference value :  5.00869e-06
 Reference value :  5.00967e-06
 Reference value :  5.01096e-06
 Reference value :  5.01184e-06
 Reference value :  5.01288e-06
 Reference value :  5.01407e-06
 Reference value :  5.01520e-06
 Reference value :  5.01638e-06
 Reference value :  5.01722e-06
 Reference value :  5.01800e-06
 Reference value :  5.01896e-06
 Reference value :  5.01997e-06
 Reference value :  5.02102e-06
 Reference value :  5.02213e-06
 Reference value :  5.02329e-06
 Reference value :  5.02503e-06
 Reference value :  5.02685e-06
 Reference value :  5.02881e-06
 Reference value :  5.03025e-06
 Reference value :  5.03180e-06
 Reference value :  5.03333e-06
 Reference value :  5.03566e-06
 Reference value :  5.03884e-06
 Reference value :  5.04326e-06
 Reference value :  5.04912e-06
 Reference value :  5.05696e-06
 Reference value :  5.06839e-06
 Reference value :  5.08199e-06
 Reference value :  5.09877e-06
 Reference value :  5.12816e-06
 Reference value :  5.17621e-06
 Reference value :  5.24975e-06
 Reference value :  5.25010e-06
 Reference value :  5.25011e-06
 Reference value :  5.25013e-06
 Reference value :  5.25017e-06
 Reference value :  5.25020e-06
 Reference value :  5.25020e-06
 Reference value :  5.25020e-06
 Reference value :  5.25021e-06
 Reference value :  5.25021e-06
 Reference value :  5.25023e-06
 Reference value :  5.25025e-06
 Reference value :  5.25031e-06
 Reference value :  5.25042e-06
 Reference value :  5.25064e-06
 Reference value :  5.25097e-06
 Reference value :  5.25131e-06
 Reference value :  5.25179e-06
 Reference value :  5.25230e-06
 Reference value :  5.25299e-06
 Reference value :  5.25381e-06
 Reference value :  5.25444e-06
 Reference value :  5.25516e-06
 Reference value :  5.25581e-06
 Reference value :  5.25653e-06
 Reference value :  5.25759e-06
 Reference value :  5.25869e-06
 Reference value :  5.26041e-06
 Reference value :  5.26278e-06
 Reference value :  5.26603e-06
 Reference value :  5.27252e-06
 Reference value :  5.28477e-06
 Reference value :  5.30598e-06
 Reference value :  5.34821e-06
 Reference value :  5.42378e-06
 Reference value :  5.50000e-06
 Reference value :  5.50001e-06
 Reference value :  5.50003e-06
 Reference value :  5.50007e-06
 Reference value :  5.50010e-06
 Reference value :  5.50010e-06
 Reference value :  5.50011e-06
 Reference value :  5.50013e-06
 Reference value :  5.50017e-06
 Reference value :  5.50024e-06
 Reference value :  5.50036e-06
 Reference value :  5.50058e-06
 Reference value :  5.50099e-06
 Reference value :  5.50147e-06
 Reference value :  5.50198e-06
 Reference value :  5.50244e-06
 Reference value :  5.50298e-06
 Reference value :  5.50349e-06
 Reference value :  5.50416e-06
 Reference value :  5.50484e-06
 Reference value :  5.50555e-06
 Reference value :  5.50652e-06
 Reference value :  5.50756e-06
 Reference value :  5.50888e-06
 Reference value :  5.50984e-06
 Reference value :  5.51090e-06
 Reference value :  5.51202e-06
 Reference value :  5.51320e-06
 Reference value :  5.51487e-06
 Reference value :  5.51665e-06
 Reference value :  5.51992e-06
 Reference value :  5.52468e-06
 Reference value :  5.53285e-06
 Reference value :  5.54751e-06
 Reference value :  5.57221e-06
 Reference value :  5.61769e-06
 Reference value :  5.69757e-06
 Reference value :  5.75010e-06
 Reference value :  5.75011e-06
 Reference value :  5.75013e-06
 Reference value :  5.75017e-06
 Reference value :  5.75020e-06
 Reference value :  5.75020e-06
 Reference value :  5.75020e-06
 Reference value :  5.75021e-06
 Reference value :  5.75021e-06
 Reference value :  5.75023e-06
 Reference value :  5.75025e-06
 Reference value :  5.75031e-06
 Reference value :  5.75042e-06
 Reference value :  5.75064e-06
 Reference value :  5.75096e-06
 Reference value :  5.75130e-06
 Reference value :  5.75178e-06
 Reference value :  5.75228e-06
 Reference value :  5.75295e-06
 Reference value :  5.75377e-06
 Reference value :  5.75441e-06
 Reference value :  5.75513e-06
 Reference value :  5.75578e-06
 Reference value :  5.75648e-06
 Reference value :  5.75728e-06
 Reference value :  5.75817e-06
 Reference value :  5.75977e-06
 Reference value :  5.76201e-06
 Reference value :  5.76479e-06
 Reference value :  5.77035e-06
 Reference value :  5.78146e-06
 Reference value :  5.80047e-06
 Reference value :  5.83851e-06
 Reference value :  5.90965e-06
 Reference value :  6.00000e-06
 Reference value :  6.00001e-06
 Reference value :  6.00003e-06
 Reference value :  6.00007e-06
 Reference value :  6.00010e-06
 Reference value :  6.00010e-06
 Reference value :  6.00011e-06
 Reference value :  6.00013e-06
 Reference value :  6.00017e-06
 Reference value :  6.00024e-06
 Reference value :  6.00036e-06
 Reference value :  6.00058e-06
 Reference value :  6.00099e-06
 Reference value :  6.00147e-06
 Reference value :  6.00198e-06
 Reference value :  6.00244e-06
 Reference value :  6.00298e-06
 Reference value :  6.00349e-06
 Reference value :  6.00415e-06
 Reference value :  6.00483e-06
 Reference value :  6.00544e-06
 Reference value :  6.00624e-06
 Reference value :  6.00706e-06
 Reference value :  6.00785e-06
 Reference value :  6.00864e-06
 Reference value :  6.00964e-06
 Reference value :  6.01093e-06
 Reference value :  6.01272e-06
 Reference value :  6.01472e-06
 Reference value :  6.01636e-06
 Reference value :  6.01775e-06
 Reference value :  6.01911e-06
 Reference value :  6.02045e-06
 Reference value :  6.02190e-06
 Reference value :  6.02343e-06
 Reference value :  6.02510e-06
 Reference value :  6.02726e-06
 Reference value :  6.03080e-06
 Reference value :  6.03748e-06
 Reference value :  6.04478e-06
 Reference value :  6.05371e-06
 Reference value :  6.06451e-06
 Reference value :  6.07543e-06
 Reference value :  6.08714e-06
 Reference value :  6.09811e-06
 Reference value :  6.10987e-06
 Reference value :  6.12927e-06
 Reference value :  6.15173e-06
 Reference value :  6.19665e-06
 Reference value :  6.25010e-06
 Reference value :  6.25011e-06
 Reference value :  6.25013e-06
 Reference value :  6.25017e-06
 Reference value :  6.25020e-06
 Reference value :  6.25020e-06
 Reference value :  6.25020e-06
 Reference value :  6.25021e-06
 Reference value :  6.25021e-06
 Reference value :  6.25023e-06
 Reference value :  6.25025e-06
 Reference value :  6.25031e-06
 Reference value :  6.25042e-06
 Reference value :  6.25064e-06
 Reference value :  6.25096e-06
 Reference value :  6.25130e-06
 Reference value :  6.25178e-06
 Reference value :  6.25228e-06
 Reference value :  6.25296e-06
 Reference value :  6.25377e-06
 Reference value :  6.25442e-06
 Reference value :  6.25515e-06
 Reference value :  6.25582e-06
 Reference value :  6.25655e-06
 Reference value :  6.25761e-06
 Reference value :  6.25872e-06
 Reference value :  6.26046e-06
 Reference value :  6.26282e-06
 Reference value :  6.26614e-06
 Reference value :  6.27276e-06
 Reference value :  6.28452e-06
 Reference value :  6.30523e-06
 Reference value :  6.34480e-06
 Reference value :  6.41471e-06
 Reference value :  6.50000e-06
 Reference value :  6.50001e-06
 Reference value :  6.50003e-06
 Reference value :  6.50007e-06
 Reference value :  6.50010e-06
 Reference value :  6.50010e-06
 Reference value :  6.50011e-06
 Reference value :  6.50013e-06
 Reference value :  6.50017e-06
 Reference value :  6.50024e-06
 Reference value :  6.50036e-06
 Reference value :  6.50058e-06
 Reference value :  6.50099e-06
 Reference value :  6.50147e-06
 Reference value :  6.50198e-06
 Reference value :  6.50244e-06
 Reference value :  6.50298e-06
 Reference value :  6.50348e-06
 Reference value :  6.50415e-06
 Reference value :  6.50484e-06
 Reference value :  6.50554e-06
 Reference value :  6.50650e-06
 Reference value :  6.50754e-06
 Reference value :  6.50911e-06
 Reference value :  6.51016e-06
 Reference value :  6.51131e-06
 Reference value :  6.51256e-06
 Reference value :  6.51384e-06
 Reference value :  6.51523e-06
 Reference value :  6.51800e-06
 Reference value :  6.52158e-06
 Reference value :  6.52788e-06
 Reference value :  6.53834e-06
 Reference value :  6.55511e-06
 Reference value :  6.58570e-06
 Reference value :  6.64550e-06
 Reference value :  6.74856e-06
 Reference value :  6.75010e-06
 Reference value :  6.75011e-06
 Reference value :  6.75013e-06
 Reference value :  6.75017e-06
 Reference value :  6.75020e-06
 Reference value :  6.75020e-06
 Reference value :  6.75020e-06
 Reference value :  6.75021e-06
 Reference value :  6.75021e-06
 Reference value :  6.75023e-06
 Reference value :  6.75025e-06
 Reference value :  6.75031e-06
 Reference value :  6.75042e-06
 Reference value :  6.75064e-06
 Reference value :  6.75096e-06
 Reference value :  6.75130e-06
 Reference value :  6.75178e-06
 Reference value :  6.75228e-06
 Reference value :  6.75296e-06
 Reference value :  6.75377e-06
 Reference value :  6.75441e-06
 Reference value :  6.75513e-06
 Reference value :  6.75576e-06
 Reference value :  6.75646e-06
 Reference value :  6.75726e-06
 Reference value :  6.75815e-06
 Reference value :  6.75975e-06
 Reference value :  6.76199e-06
 Reference value :  6.76475e-06
 Reference value :  6.77028e-06
 Reference value :  6.78135e-06
 Reference value :  6.80048e-06
 Reference value :  6.83875e-06
 Reference value :  6.91070e-06
 Reference value :  7.00000e-06
 Reference value :  7.00001e-06
 Reference value :  7.00003e-06
 Reference value :  7.00007e-06
 Reference value :  7.00010e-06
 Reference value :  7.00010e-06
 Reference value :  7.00011e-06
 Reference value :  7.00013e-06
 Reference value :  7.00017e-06
 Reference value :  7.00024e-06
 Reference value :  7.00036e-06
 Reference value :  7.00058e-06
 Reference value :  7.00099e-06
 Reference value :  7.00147e-06
 Reference value :  7.00198e-06
 Reference value :  7.00244e-06
 Reference value :  7.00298e-06
 Reference value :  7.00349e-06
 Reference value :  7.00414e-06
 Reference value :  7.00475e-06
 Reference value :  7.00540e-06
 Reference value :  7.00620e-06
 Reference value :  7.00701e-06
 Reference value :  7.00773e-06
 Reference value :  7.00854e-06
 Reference value :  7.00953e-06
 Reference value :  7.01077e-06
 Reference value :  7.01276e-06
 Reference value :  7.01473e-06
 Reference value :  7.01630e-06
 Reference value :  7.01778e-06
 Reference value :  7.01897e-06
 Reference value :  7.02023e-06
 Reference value :  7.02129e-06
 Reference value :  7.02243e-06
 Reference value :  7.02370e-06
 Reference value :  7.02543e-06
 Reference value :  7.02725e-06
 Reference value :  7.03084e-06
 Reference value :  7.03557e-06
 Reference value :  7.04049e-06
 Reference value :  7.04566e-06
 Reference value :  7.05458e-06
 Reference value :  7.06864e-06
 Reference value :  7.08526e-06
 Reference value :  7.10299e-06
 Reference value :  7.13074e-06
 Reference value :  7.16087e-06
 Reference value :  7.21402e-06
 Reference value :  7.25010e-06
 Reference value :  7.25011e-06
 Reference value :  7.25013e-06
 Reference value :  7.25017e-06
 Reference value :  7.25020e-06
 Reference value :  7.25020e-06
 Reference value :  7.25020e-06
 Reference value :  7.25021e-06
 Reference value :  7.25021e-06
 Reference value :  7.25023e-06
 Reference value :  7.25025e-06
 Reference value :  7.25031e-06
 Reference value :  7.25042e-06
 Reference value :  7.25064e-06
 Reference value :  7.25096e-06
 Reference value :  7.25130e-06
 Reference value :  7.25178e-06
 Reference value :  7.25228e-06
 Reference value :  7.25296e-06
 Reference value :  7.25377e-06
 Reference value :  7.25438e-06
 Reference value :  7.25505e-06
 Reference value :  7.25568e-06
 Reference value :  7.25637e-06
 Reference value :  7.25741e-06
 Reference value :  7.25848e-06
 Reference value :  7.26016e-06
 Reference value :  7.26249e-06
 Reference value :  7.26546e-06
 Reference value :  7.27140e-06
 Reference value :  7.28315e-06
 Reference value :  7.30254e-06
 Reference value :  7.34131e-06
 Reference value :  7.39206e-06
 Reference value :  7.42717e-06
 Reference value :  7.46583e-06
 Reference value :  7.50000e-06
 Reference value :  7.50001e-06
 Reference value :  7.50003e-06
 Reference value :  7.50007e-06
 Reference value :  7.50010e-06
 Reference value :  7.50010e-06
 Reference value :  7.50011e-06
 Reference value :  7.50013e-06
 Reference value :  7.50017e-06
 Reference value :  7.50024e-06
 Reference value :  7.50036e-06
 Reference value :  7.50058e-06
 Reference value :  7.50099e-06
 Reference value :  7.50145e-06
 Reference value :  7.50196e-06
 Reference value :  7.50243e-06
 Reference value :  7.50297e-06
 Reference value :  7.50347e-06
 Reference value :  7.50414e-06
 Reference value :  7.50483e-06
 Reference value :  7.50552e-06
 Reference value :  7.50649e-06
 Reference value :  7.50751e-06
 Reference value :  7.50912e-06
 Reference value :  7.51014e-06
 Reference value :  7.51129e-06
 Reference value :  7.51250e-06
 Reference value :  7.51377e-06
 Reference value :  7.51544e-06
 Reference value :  7.51755e-06
 Reference value :  7.52102e-06
 Reference value :  7.52644e-06
 Reference value :  7.53571e-06
 Reference value :  7.55121e-06
 Reference value :  7.57969e-06
 Reference value :  7.62899e-06
 Reference value :  7.69439e-06
 Reference value :  7.75010e-06
 Reference value :  7.75011e-06
 Reference value :  7.75013e-06
 Reference value :  7.75017e-06
 Reference value :  7.75020e-06
 Reference value :  7.75020e-06
 Reference value :  7.75020e-06
 Reference value :  7.75021e-06
 Reference value :  7.75021e-06
 Reference value :  7.75023e-06
 Reference value :  7.75025e-06
 Reference value :  7.75031e-06
 Reference value :  7.75042e-06
 Reference value :  7.75064e-06
 Reference value :  7.75096e-06
 Reference value :  7.75130e-06
 Reference value :  7.75178e-06
 Reference value :  7.75229e-06
 Reference value :  7.75296e-06
 Reference value :  7.75377e-06
 Reference value :  7.75439e-06
 Reference value :  7.75509e-06
 Reference value :  7.75571e-06
 Reference value :  7.75640e-06
 Reference value :  7.75720e-06
 Reference value :  7.75809e-06
 Reference value :  7.75969e-06
 Reference value :  7.76192e-06
 Reference value :  7.76467e-06
 Reference value :  7.77018e-06
 Reference value :  7.78118e-06
 Reference value :  7.80078e-06
 Reference value :  7.83999e-06
 Reference value :  7.91478e-06
 Reference value :  8.00000e-06
 Reference value :  8.00001e-06
 Reference value :  8.00003e-06
 Reference value :  8.00007e-06
 Reference value :  8.00010e-06
 Reference value :  8.00010e-06
 Reference value :  8.00011e-06
 Reference value :  8.00013e-06
 Reference value :  8.00017e-06
 Reference value :  8.00024e-06
 Reference value :  8.00036e-06
 Reference value :  8.00058e-06
 Reference value :  8.00099e-06
 Reference value :  8.00145e-06
 Reference value :  8.00196e-06
 Reference value :  8.00242e-06
 Reference value :  8.00296e-06
 Reference value :  8.00347e-06
 Reference value :  8.00413e-06
 Reference value :  8.00472e-06
 Reference value :  8.00536e-06
 Reference value :  8.00618e-06
 Reference value :  8.00697e-06
 Reference value :  8.00766e-06
 Reference value :  8.00841e-06
 Reference value :  8.00948e-06
 Reference value :  8.01059e-06
 Reference value :  8.01255e-06
 Reference value :  8.01459e-06
 Reference value :  8.01617e-06
 Reference value :  8.01791e-06
 Reference value :  8.01965e-06
 Reference value :  8.02164e-06
 Reference value :  8.02471e-06
 Reference value :  8.02876e-06
 Reference value :  8.03561e-06
 Reference value :  8.04658e-06
 Reference value :  8.06490e-06
 Reference value :  8.10153e-06
 Reference value :  8.16964e-06
 Reference value :  8.25010e-06
 Reference value :  8.25011e-06
 Reference value :  8.25013e-06
 Reference value :  8.25017e-06
 Reference value :  8.25020e-06
 Reference value :  8.25020e-06
 Reference value :  8.25020e-06
 Reference value :  8.25021e-06
 Reference value :  8.25021e-06
 Reference value :  8.25023e-06
 Reference value :  8.25025e-06
 Reference value :  8.25031e-06
 Reference value :  8.25042e-06
 Reference value :  8.25064e-06
 Reference value :  8.25097e-06
 Reference value :  8.25131e-06
 Reference value :  8.25180e-06
 Reference value :  8.25230e-06
 Reference value :  8.25297e-06
 Reference value :  8.25380e-06
 Reference value :  8.25471e-06
 Reference value :  8.25578e-06
 Reference value :  8.25690e-06
 Reference value :  8.25812e-06
 Reference value :  8.25972e-06
 Reference value :  8.26159e-06
 Reference value :  8.26459e-06
 Reference value :  8.27027e-06
 Reference value :  8.28165e-06
 Reference value :  8.30439e-06
 Reference value :  8.34987e-06
 Reference value :  8.44084e-06
 Reference value :  8.50000e-06
 Reference value :  8.50000e-06
 Reference value :  8.50000e-06
 Reference value :  8.50000e-06
 Reference value :  8.50000e-06
 Reference value :  8.50000e-06
 Reference value :  8.50000e-06
 Reference value :  8.50000e-06
 Reference value :  8.50000e-06
 Reference value :  8.50000e-06
 Reference value :  8.50001e-06
 Reference value :  8.50001e-06
 Reference value :  8.50002e-06
 Reference value :  8.50004e-06
 Reference value :  8.50008e-06
 Reference value :  8.50010e-06
 Reference value :  8.50010e-06
 Reference value :  8.50011e-06
 Reference value :  8.50012e-06
 Reference value :  8.50014e-06
 Reference value :  8.50018e-06
 Reference value :  8.50027e-06
 Reference value :  8.50044e-06
 Reference value :  8.50078e-06
 Reference value :  8.50125e-06
 Reference value :  8.50188e-06
 Reference value :  8.50256e-06
 Reference value :  8.50312e-06
 Reference value :  8.50371e-06
 Reference value :  8.50430e-06
 Reference value :  8.50495e-06
 Reference value :  8.50579e-06
 Reference value :  8.50668e-06
 Reference value :  8.50828e-06
 Reference value :  8.51004e-06
 Reference value :  8.51122e-06
 Reference value :  8.51260e-06
 Reference value :  8.51447e-06
 Reference value :  8.51638e-06
 Reference value :  8.51864e-06
 Reference value :  8.52285e-06
 Reference value :  8.52696e-06
 Reference value :  8.52989e-06
 Reference value :  8.53243e-06
 Reference value :  8.53454e-06
 Reference value :  8.53667e-06
 Reference value :  8.53835e-06
 Reference value :  8.54000e-06
 Reference value :  8.54150e-06
 Reference value :  8.54311e-06
 Reference value :  8.54520e-06
 Reference value :  8.54708e-06
 Reference value :  8.54915e-06
 Reference value :  8.55244e-06
 Reference value :  8.55588e-06
 Reference value :  8.56141e-06
 Reference value :  8.56732e-06
 Reference value :  8.57675e-06
 Reference value :  8.58975e-06
 Reference value :  8.61405e-06
 Reference value :  8.64117e-06
 Reference value :  8.67032e-06
 Reference value :  8.69327e-06
 Reference value :  8.71872e-06
 Reference value :  8.75010e-06
 Reference value :  8.75011e-06
 Reference value :  8.75013e-06
 Reference value :  8.75017e-06
 Reference value :  8.75020e-06
 Reference value :  8.75020e-06
 Reference value :  8.75020e-06
 Reference value :  8.75021e-06
 Reference value :  8.75021e-06
 Reference value :  8.75023e-06
 Reference value :  8.75025e-06
 Reference value :  8.75031e-06
 Reference value :  8.75042e-06
 Reference value :  8.75064e-06
 Reference value :  8.75097e-06
 Reference value :  8.75131e-06
 Reference value :  8.75177e-06
 Reference value :  8.75226e-06
 Reference value :  8.75288e-06
 Reference value :  8.75373e-06
 Reference value :  8.75445e-06
 Reference value :  8.75524e-06
 Reference value :  8.75597e-06
 Reference value :  8.75674e-06
 Reference value :  8.75789e-06
 Reference value :  8.75907e-06
 Reference value :  8.76104e-06
 Reference value :  8.76342e-06
 Reference value :  8.76770e-06
 Reference value :  8.77586e-06
 Reference value :  8.78837e-06
 Reference value :  8.81290e-06
 Reference value :  8.85396e-06
 Reference value :  8.92761e-06
 Reference value :  9.00000e-06
 Reference value :  9.00001e-06
 Reference value :  9.00003e-06
 Reference value :  9.00007e-06
 Reference value :  9.00010e-06
 Reference value :  9.00010e-06
 Reference value :  9.00011e-06
 Reference value :  9.00013e-06
 Reference value :  9.00017e-06
 Reference value :  9.00024e-06
 Reference value :  9.00037e-06
 Reference value :  9.00060e-06
 Reference value :  9.00101e-06
 Reference value :  9.00147e-06
 Reference value :  9.00198e-06
 Reference value :  9.00245e-06
 Reference value :  9.00300e-06
 Reference value :  9.00355e-06
 Reference value :  9.00421e-06
 Reference value :  9.00488e-06
 Reference value :  9.00557e-06
 Reference value :  9.00654e-06
 Reference value :  9.00753e-06
 Reference value :  9.00950e-06
 Reference value :  9.01131e-06
 Reference value :  9.01271e-06
 Reference value :  9.01430e-06
 Reference value :  9.01611e-06
 Reference value :  9.01757e-06
 Reference value :  9.01917e-06
 Reference value :  9.02128e-06
 Reference value :  9.02351e-06
 Reference value :  9.02728e-06
 Reference value :  9.03286e-06
 Reference value :  9.04231e-06
 Reference value :  9.05920e-06
 Reference value :  9.08727e-06
 Reference value :  9.14340e-06
 Reference value :  9.24816e-06
 Reference value :  9.25010e-06
 Reference value :  9.25011e-06
 Reference value :  9.25013e-06
 Reference value :  9.25017e-06
 Reference value :  9.25020e-06
 Reference value :  9.25020e-06
 Reference value :  9.25020e-06
 Reference value :  9.25021e-06
 Reference value :  9.25021e-06
 Reference value :  9.25023e-06
 Reference value :  9.25025e-06
 Reference value :  9.25031e-06
 Reference value :  9.25042e-06
 Reference value :  9.25064e-06
 Reference value :  9.25096e-06
 Reference value :  9.25130e-06
 Reference value :  9.25178e-06
 Reference value :  9.25228e-06
 Reference value :  9.25301e-06
 Reference value :  9.25382e-06
 Reference value :  9.25446e-06
 Reference value :  9.25518e-06
 Reference value :  9.25582e-06
 Reference value :  9.25651e-06
 Reference value :  9.25732e-06
 Reference value :  9.25825e-06
 Reference value :  9.25983e-06
 Reference value :  9.26210e-06
 Reference value :  9.26491e-06
 Reference value :  9.27054e-06
 Reference value :  9.28179e-06
 Reference value :  9.30198e-06
 Reference value :  9.34236e-06
 Reference value :  9.41996e-06
 Reference value :  9.50000e-06
 Reference value :  9.50001e-06
 Reference value :  9.50003e-06
 Reference value :  9.50007e-06
 Reference value :  9.50010e-06
 Reference value :  9.50010e-06
 Reference value :  9.50011e-06
 Reference value :  9.50013e-06
 Reference value :  9.50017e-06
 Reference value :  9.50024e-06
 Reference value :  9.50037e-06
 Reference value :  9.50060e-06
 Reference value :  9.50101e-06
 Reference value :  9.50147e-06
 Reference value :  9.50198e-06
 Reference value :  9.50246e-06
 Reference value :  9.50300e-06
 Reference value :  9.50352e-06
 Reference value :  9.50428e-06
 Reference value :  9.50487e-06
 Reference value :  9.50550e-06
 Reference value :  9.50627e-06
 Reference value :  9.50710e-06
 Reference value :  9.50780e-06
 Reference value :  9.50859e-06
 Reference value :  9.50969e-06
 Reference value :  9.51082e-06
 Reference value :  9.51256e-06
 Reference value :  9.51454e-06
 Reference value :  9.51613e-06
 Reference value :  9.51758e-06
 Reference value :  9.51868e-06
 Reference value :  9.51971e-06
 Reference value :  9.52060e-06
 Reference value :  9.52161e-06
 Reference value :  9.52268e-06
 Reference value :  9.52408e-06
 Reference value :  9.52576e-06
 Reference value :  9.52838e-06
 Reference value :  9.53306e-06
 Reference value :  9.53996e-06
 Reference value :  9.55238e-06
 Reference value :  9.57014e-06
 Reference value :  9.59872e-06
 Reference value :  9.63379e-06
 Reference value :  9.66756e-06
 Reference value :  9.68464e-06
 Reference value :  9.69615e-06
 Reference value :  9.70532e-06
 Reference value :  9.71474e-06
 Reference value :  9.72447e-06
 Reference value :  9.73431e-06
 Reference value :  9.74944e-06
 Reference value :  9.75010e-06
 Reference value :  9.75011e-06
 Reference value :  9.75013e-06
 Reference value :  9.75017e-06
 Reference value :  9.75020e-06
 Reference value :  9.75020e-06
 Reference value :  9.75020e-06
 Reference value :  9.75021e-06
 Reference value :  9.75021e-06
 Reference value :  9.75023e-06
 Reference value :  9.75025e-06
 Reference value :  9.75031e-06
 Reference value :  9.75042e-06
 Reference value :  9.75064e-06
 Reference value :  9.75096e-06
 Reference value :  9.75130e-06
 Reference value :  9.75177e-06
 Reference value :  9.75227e-06
 Reference value :  9.75293e-06
 Reference value :  9.75376e-06
 Reference value :  9.75438e-06
 Reference value :  9.75508e-06
 Reference value :  9.75573e-06
 Reference value :  9.75643e-06
 Reference value :  9.75747e-06
 Reference value :  9.75856e-06
 Reference value :  9.76024e-06
 Reference value :  9.76259e-06
 Reference value :  9.76563e-06
 Reference value :  9.77171e-06
 Reference value :  9.78320e-06
 Reference value :  9.80245e-06
 Reference value :  9.84093e-06
 Reference value :  9.90833e-06
 Reference value :  1.00000e-05
 Reference value :  1.00000e-05
 Reference value :  1.00000e-05
 Reference value :  1.00001e-05
 Reference value :  1.00001e-05
 Reference value :  1.00001e-05
 Reference value :  1.00001e-05
 Reference value :  1.00001e-05
 Reference value :  1.00002e-05
 Reference value :  1.00002e-05
 Reference value :  1.00004e-05
 Reference value :  1.00006e-05
 Reference value :  1.00010e-05
 Reference value :  1.00015e-05
 Reference value :  1.00020e-05
 Reference value :  1.00024e-05
 Reference value :  1.00029e-05
 Reference value :  1.00034e-05
 Reference value :  1.00041e-05
 Reference value :  1.00048e-05
 Reference value :  1.00055e-05
 Reference value :  1.00065e-05
 Reference value :  1.00075e-05
 Reference value :  1.00091e-05
 Reference value :  1.00102e-05
 Reference value :  1.00113e-05
 Reference value :  1.00123e-05
 Reference value :  1.00135e-05
 Reference value :  1.00147e-05
 Reference value :  1.00161e-05
 Reference value :  1.00189e-05
 Reference value :  1.00227e-05
 Reference value :  1.00302e-05
 Reference value :  1.00433e-05
 Reference value :  1.00666e-05
 Reference value :  1.01132e-05
 Reference value :  1.01996e-05
 Reference value :  1.02501e-05
 Reference value :  1.02501e-05
 Reference value :  1.02501e-05
 Reference value :  1.02502e-05
 Reference value :  1.02502e-05
 Reference value :  1.02502e-05
 Reference value :  1.02502e-05
 Reference value :  1.02502e-05
 Reference value :  1.02502e-05
 Reference value :  1.02502e-05
 Reference value :  1.02503e-05
 Reference value :  1.02503e-05
 Reference value :  1.02504e-05
 Reference value :  1.02506e-05
 Reference value :  1.02510e-05
 Reference value :  1.02513e-05
 Reference value :  1.02518e-05
 Reference value :  1.02523e-05
 Reference value :  1.02530e-05
 Reference value :  1.02538e-05
 Reference value :  1.02544e-05
 Reference value :  1.02551e-05
 Reference value :  1.02558e-05
 Reference value :  1.02565e-05
 Reference value :  1.02573e-05
 Reference value :  1.02582e-05
 Reference value :  1.02591e-05
 Reference value :  1.02604e-05
 Reference value :  1.02617e-05
 Reference value :  1.02636e-05
 Reference value :  1.02659e-05
 Reference value :  1.02693e-05
 Reference value :  1.02759e-05
 Reference value :  1.02845e-05
 Reference value :  1.03000e-05
 Reference value :  1.03306e-05
 Reference value :  1.03809e-05
 Reference value :  1.04817e-05
 Reference value :  1.05000e-05
 Reference value :  1.05000e-05
 Reference value :  1.05000e-05
 Reference value :  1.05001e-05
 Reference value :  1.05001e-05
 Reference value :  1.05001e-05
 Reference value :  1.05001e-05
 Reference value :  1.05001e-05
 Reference value :  1.05002e-05
 Reference value :  1.05002e-05
 Reference value :  1.05004e-05
 Reference value :  1.05006e-05
 Reference value :  1.05010e-05
 Reference value :  1.05015e-05
 Reference value :  1.05020e-05
 Reference value :  1.05024e-05
 Reference value :  1.05030e-05
 Reference value :  1.05035e-05
 Reference value :  1.05042e-05
 Reference value :  1.05048e-05
 Reference value :  1.05055e-05
 Reference value :  1.05063e-05
 Reference value :  1.05071e-05
 Reference value :  1.05078e-05
 Reference value :  1.05086e-05
 Reference value :  1.05096e-05
 Reference value :  1.05106e-05
 Reference value :  1.05121e-05
 Reference value :  1.05136e-05
 Reference value :  1.05150e-05
 Reference value :  1.05164e-05
 Reference value :  1.05175e-05
 Reference value :  1.05183e-05
 Reference value :  1.05192e-05
 Reference value :  1.05201e-05
 Reference value :  1.05211e-05
 Reference value :  1.05223e-05
 Reference value :  1.05234e-05
 Reference value :  1.05254e-05
 Reference value :  1.05273e-05
 Reference value :  1.05310e-05
 Reference value :  1.05385e-05
 Reference value :  1.05505e-05
 Reference value :  1.05676e-05
 Reference value :  1.05864e-05
 Reference value :  1.06003e-05
 Reference value :  1.06110e-05
 Reference value :  1.06209e-05
 Reference value :  1.06311e-05
 Reference value :  1.06418e-05
 Reference value :  1.06588e-05
 Reference value :  1.06763e-05
 Reference value :  1.07011e-05
 Reference value :  1.07316e-05
 Reference value :  1.07501e-05
 Reference value :  1.07501e-05
 Reference value :  1.07501e-05
 Reference value :  1.07502e-05
 Reference value :  1.07502e-05
 Reference value :  1.07502e-05
 Reference value :  1.07502e-05
 Reference value :  1.07502e-05
 Reference value :  1.07502e-05
 Reference value :  1.07502e-05
 Reference value :  1.07503e-05
 Reference value :  1.07503e-05
 Reference value :  1.07504e-05
 Reference value :  1.07506e-05
 Reference value :  1.07510e-05
 Reference value :  1.07513e-05
 Reference value :  1.07518e-05
 Reference value :  1.07523e-05
 Reference value :  1.07530e-05
 Reference value :  1.07538e-05
 Reference value :  1.07544e-05
 Reference value :  1.07552e-05
 Reference value :  1.07558e-05
 Reference value :  1.07566e-05
 Reference value :  1.07576e-05
 Reference value :  1.07587e-05
 Reference value :  1.07605e-05
 Reference value :  1.07628e-05
 Reference value :  1.07662e-05
 Reference value :  1.07728e-05
 Reference value :  1.07846e-05
 Reference value :  1.08055e-05
 Reference value :  1.08455e-05
 Reference value :  1.09162e-05
 Reference value :  1.09871e-05
 Reference value :  1.10000e-05
 Reference value :  1.10000e-05
 Reference value :  1.10000e-05
 Reference value :  1.10001e-05
 Reference value :  1.10001e-05
 Reference value :  1.10001e-05
 Reference value :  1.10001e-05
 Reference value :  1.10001e-05
 Reference value :  1.10002e-05
 Reference value :  1.10002e-05
 Reference value :  1.10004e-05
 Reference value :  1.10006e-05
 Reference value :  1.10010e-05
 Reference value :  1.10015e-05
 Reference value :  1.10020e-05
 Reference value :  1.10024e-05
 Reference value :  1.10030e-05
 Reference value :  1.10035e-05
 Reference value :  1.10042e-05
 Reference value :  1.10048e-05
 Reference value :  1.10056e-05
 Reference value :  1.10065e-05
 Reference value :  1.10076e-05
 Reference value :  1.10090e-05
 Reference value :  1.10100e-05
 Reference value :  1.10111e-05
 Reference value :  1.10120e-05
 Reference value :  1.10131e-05
 Reference value :  1.10142e-05
 Reference value :  1.10154e-05
 Reference value :  1.10180e-05
 Reference value :  1.10223e-05
 Reference value :  1.10301e-05
 Reference value :  1.10454e-05
 Reference value :  1.10730e-05
 Reference value :  1.11281e-05
 Reference value :  1.12384e-05
 Reference value :  1.12501e-05
 Reference value :  1.12501e-05
 Reference value :  1.12501e-05
 Reference value :  1.12502e-05
 Reference value :  1.12502e-05
 Reference value :  1.12502e-05
 Reference value :  1.12502e-05
 Reference value :  1.12502e-05
 Reference value :  1.12502e-05
 Reference value :  1.12502e-05
 Reference value :  1.12503e-05
 Reference value :  1.12503e-05
 Reference value :  1.12504e-05
 Reference value :  1.12506e-05
 Reference value :  1.12510e-05
 Reference value :  1.12513e-05
 Reference value :  1.12518e-05
 Reference value :  1.12523e-05
 Reference value :  1.12530e-05
 Reference value :  1.12538e-05
 Reference value :  1.12544e-05
 Reference value :  1.12551e-05
 Reference value :  1.12558e-05
 Reference value :  1.12565e-05
 Reference value :  1.12573e-05
 Reference value :  1.12582e-05
 Reference value :  1.12598e-05
 Reference value :  1.12620e-05
 Reference value :  1.12648e-05
 Reference value :  1.12704e-05
 Reference value :  1.12815e-05
 Reference value :  1.13004e-05
 Reference value :  1.13380e-05
 Reference value :  1.14078e-05
 Reference value :  1.15000e-05
 Reference value :  1.15000e-05
 Reference value :  1.15000e-05
 Reference value :  1.15001e-05
 Reference value :  1.15001e-05
 Reference value :  1.15001e-05
 Reference value :  1.15001e-05
 Reference value :  1.15001e-05
 Reference value :  1.15002e-05
 Reference value :  1.15002e-05
 Reference value :  1.15004e-05
 Reference value :  1.15006e-05
 Reference value :  1.15010e-05
 Reference value :  1.15015e-05
 Reference value :  1.15020e-05
 Reference value :  1.15024e-05
 Reference value :  1.15030e-05
 Reference value :  1.15035e-05
 Reference value :  1.15041e-05
 Reference value :  1.15048e-05
 Reference value :  1.15054e-05
 Reference value :  1.15063e-05
 Reference value :  1.15071e-05
 Reference value :  1.15078e-05
 Reference value :  1.15086e-05
 Reference value :  1.15097e-05
 Reference value :  1.15108e-05
 Reference value :  1.15128e-05
 Reference value :  1.15146e-05
 Reference value :  1.15162e-05
 Reference value :  1.15175e-05
 Reference value :  1.15187e-05
 Reference value :  1.15200e-05
 Reference value :  1.15211e-05
 Reference value :  1.15222e-05
 Reference value :  1.15234e-05
 Reference value :  1.15251e-05
 Reference value :  1.15269e-05
 Reference value :  1.15304e-05
 Reference value :  1.15351e-05
 Reference value :  1.15401e-05
 Reference value :  1.15439e-05
 Reference value :  1.15485e-05
 Reference value :  1.15545e-05
 Reference value :  1.15605e-05
 Reference value :  1.15644e-05
 Reference value :  1.15688e-05
 Reference value :  1.15741e-05
 Reference value :  1.15798e-05
 Reference value :  1.15883e-05
 Reference value :  1.15951e-05
 Reference value :  1.16030e-05
 Reference value :  1.16155e-05
 Reference value :  1.16328e-05
 Reference value :  1.16604e-05
 Reference value :  1.17014e-05
 Reference value :  1.17501e-05
 Reference value :  1.17501e-05
 Reference value :  1.17501e-05
 Reference value :  1.17502e-05
 Reference value :  1.17502e-05
 Reference value :  1.17502e-05
 Reference value :  1.17502e-05
 Reference value :  1.17502e-05
 Reference value :  1.17502e-05
 Reference value :  1.17502e-05
 Reference value :  1.17503e-05
 Reference value :  1.17503e-05
 Reference value :  1.17504e-05
 Reference value :  1.17506e-05
 Reference value :  1.17510e-05
 Reference value :  1.17513e-05
 Reference value :  1.17518e-05
 Reference value :  1.17523e-05
 Reference value :  1.17530e-05
 Reference value :  1.17538e-05
 Reference value :  1.17544e-05
 Reference value :  1.17551e-05
 Reference value :  1.17557e-05
 Reference value :  1.17564e-05
 Reference value :  1.17574e-05
 Reference value :  1.17585e-05
 Reference value :  1.17602e-05
 Reference value :  1.17625e-05
 Reference value :  1.17656e-05
 Reference value :  1.17716e-05
 Reference value :  1.17834e-05
 Reference value :  1.18031e-05
 Reference value :  1.18424e-05
 Reference value :  1.19143e-05
 Reference value :  1.20000e-05
 Reference value :  1.20000e-05
 Reference value :  1.20000e-05
 Reference value :  1.20001e-05
 Reference value :  1.20001e-05
 Reference value :  1.20001e-05
 Reference value :  1.20001e-05
 Reference value :  1.20001e-05
 Reference value :  1.20002e-05
 Reference value :  1.20002e-05
 Reference value :  1.20004e-05
 Reference value :  1.20006e-05
 Reference value :  1.20010e-05
 Reference value :  1.20015e-05
 Reference value :  1.20020e-05
 Reference value :  1.20024e-05
 Reference value :  1.20029e-05
 Reference value :  1.20034e-05
 Reference value :  1.20041e-05
 Reference value :  1.20048e-05
 Reference value :  1.20055e-05
 Reference value :  1.20064e-05
 Reference value :  1.20074e-05
 Reference value :  1.20091e-05
 Reference value :  1.20101e-05
 Reference value :  1.20113e-05
 Reference value :  1.20125e-05
 Reference value :  1.20138e-05
 Reference value :  1.20156e-05
 Reference value :  1.20175e-05
 Reference value :  1.20209e-05
 Reference value :  1.20258e-05
 Reference value :  1.20340e-05
 Reference value :  1.20484e-05
 Reference value :  1.20721e-05
 Reference value :  1.21148e-05
 Reference value :  1.21881e-05
 Reference value :  1.22501e-05
 Reference value :  1.22501e-05
 Reference value :  1.22501e-05
 Reference value :  1.22502e-05
 Reference value :  1.22502e-05
 Reference value :  1.22502e-05
 Reference value :  1.22502e-05
 Reference value :  1.22502e-05
 Reference value :  1.22502e-05
 Reference value :  1.22502e-05
 Reference value :  1.22503e-05
 Reference value :  1.22503e-05
 Reference value :  1.22504e-05
 Reference value :  1.22506e-05
 Reference value :  1.22510e-05
 Reference value :  1.22513e-05
 Reference value :  1.22518e-05
 Reference value :  1.22523e-05
 Reference value :  1.22530e-05
 Reference value :  1.22538e-05
 Reference value :  1.22544e-05
 Reference value :  1.22551e-05
 Reference value :  1.22558e-05
 Reference value :  1.22565e-05
 Reference value :  1.22573e-05
 Reference value :  1.22582e-05
 Reference value :  1.22590e-05
 Reference value :  1.22602e-05
 Reference value :  1.22614e-05
 Reference value :  1.22632e-05
 Reference value :  1.22655e-05
 Reference value :  1.22685e-05
 Reference value :  1.22742e-05
 Reference value :  1.22815e-05
 Reference value :  1.22937e-05
 Reference value :  1.23156e-05
 Reference value :  1.23519e-05
 Reference value :  1.24160e-05
 Reference value :  1.25000e-05
 Reference value :  1.25000e-05
 Reference value :  1.25000e-05
 Reference value :  1.25001e-05
 Reference value :  1.25001e-05
 Reference value :  1.25001e-05
 Reference value :  1.25001e-05
 Reference value :  1.25001e-05
 Reference value :  1.25002e-05
 Reference value :  1.25002e-05
 Reference value :  1.25004e-05
 Reference value :  1.25006e-05
 Reference value :  1.25010e-05
 Reference value :  1.25015e-05
 Reference value :  1.25020e-05
 Reference value :  1.25024e-05
 Reference value :  1.25030e-05
 Reference value :  1.25035e-05
 Reference value :  1.25042e-05
 Reference value :  1.25048e-05
 Reference value :  1.25055e-05
 Reference value :  1.25063e-05
 Reference value :  1.25071e-05
 Reference value :  1.25079e-05
 Reference value :  1.25086e-05
 Reference value :  1.25097e-05
 Reference value :  1.25109e-05
 Reference value :  1.25118e-05
 Reference value :  1.25129e-05
 Reference value :  1.25139e-05
 Reference value :  1.25150e-05
 Reference value :  1.25161e-05
 Reference value :  1.25169e-05
 Reference value :  1.25177e-05
 Reference value :  1.25188e-05
 Reference value :  1.25198e-05
 Reference value :  1.25209e-05
 Reference value :  1.25219e-05
 Reference value :  1.25230e-05
 Reference value :  1.25246e-05
 Reference value :  1.25263e-05
 Reference value :  1.25293e-05
 Reference value :  1.25335e-05
 Reference value :  1.25400e-05
 Reference value :  1.25465e-05
 Reference value :  1.25526e-05
 Reference value :  1.25567e-05
 Reference value :  1.25606e-05
 Reference value :  1.25657e-05
 Reference value :  1.25704e-05
 Reference value :  1.25773e-05
 Reference value :  1.25850e-05
 Reference value :  1.25949e-05
 Reference value :  1.26077e-05
 Reference value :  1.26237e-05
 Reference value :  1.26448e-05
 Reference value :  1.26718e-05
 Reference value :  1.27069e-05
 Reference value :  1.27501e-05
 Reference value :  1.27501e-05
 Reference value :  1.27501e-05
 Reference value :  1.27502e-05
 Reference value :  1.27502e-05
 Reference value :  1.27502e-05
 Reference value :  1.27502e-05
 Reference value :  1.27502e-05
 Reference value :  1.27502e-05
 Reference value :  1.27502e-05
 Reference value :  1.27503e-05
 Reference value :  1.27503e-05
 Reference value :  1.27504e-05
 Reference value :  1.27506e-05
 Reference value :  1.27510e-05
 Reference value :  1.27513e-05
 Reference value :  1.27518e-05
 Reference value :  1.27523e-05
 Reference value :  1.27530e-05
 Reference value :  1.27538e-05
 Reference value :  1.27544e-05
 Reference value :  1.27551e-05
 Reference value :  1.27558e-05
 Reference value :  1.27565e-05
 Reference value :  1.27576e-05
 Reference value :  1.27587e-05
 Reference value :  1.27604e-05
 Reference value :  1.27628e-05
 Reference value :  1.27659e-05
 Reference value :  1.27722e-05
 Reference value :  1.27841e-05
 Reference value :  1.28041e-05
 Reference value :  1.28387e-05
 Reference value :  1.28723e-05
 Reference value :  1.28951e-05
 Reference value :  1.29201e-05
 Reference value :  1.29408e-05
 Reference value :  1.29604e-05
 Reference value :  1.29771e-05
 Reference value :  1.29984e-05
 Reference value :  1.30000e-05
 Reference value :  1.30000e-05
 Reference value :  1.30000e-05
 Reference value :  1.30001e-05
 Reference value :  1.30001e-05
 Reference value :  1.30001e-05
 Reference value :  1.30001e-05
 Reference value :  1.30001e-05
 Reference value :  1.30002e-05
 Reference value :  1.30002e-05
 Reference value :  1.30004e-05
 Reference value :  1.30006e-05
 Reference value :  1.30010e-05
 Reference value :  1.30015e-05
 Reference value :  1.30020e-05
 Reference value :  1.30024e-05
 Reference value :  1.30029e-05
 Reference value :  1.30034e-05
 Reference value :  1.30041e-05
 Reference value :  1.30048e-05
 Reference value :  1.30055e-05
 Reference value :  1.30065e-05
 Reference value :  1.30074e-05
 Reference value :  1.30089e-05
 Reference value :  1.30098e-05
 Reference value :  1.30109e-05
 Reference value :  1.30119e-05
 Reference value :  1.30131e-05
 Reference value :  1.30145e-05
 Reference value :  1.30160e-05
 Reference value :  1.30188e-05
 Reference value :  1.30228e-05
 Reference value :  1.30298e-05
 Reference value :  1.30423e-05
 Reference value :  1.30637e-05
 Reference value :  1.31036e-05
 Reference value :  1.31740e-05
 Reference value :  1.32501e-05
 Reference value :  1.32501e-05
 Reference value :  1.32501e-05
 Reference value :  1.32502e-05
 Reference value :  1.32502e-05
 Reference value :  1.32502e-05
 Reference value :  1.32502e-05
 Reference value :  1.32502e-05
 Reference value :  1.32502e-05
 Reference value :  1.32502e-05
 Reference value :  1.32503e-05
 Reference value :  1.32503e-05
 Reference value :  1.32504e-05
 Reference value :  1.32506e-05
 Reference value :  1.32510e-05
 Reference value :  1.32513e-05
 Reference value :  1.32518e-05
 Reference value :  1.32523e-05
 Reference value :  1.32530e-05
 Reference value :  1.32538e-05
 Reference value :  1.32544e-05
 Reference value :  1.32551e-05
 Reference value :  1.32558e-05
 Reference value :  1.32564e-05
 Reference value :  1.32572e-05
 Reference value :  1.32581e-05
 Reference value :  1.32590e-05
 Reference value :  1.32602e-05
 Reference value :  1.32614e-05
 Reference value :  1.32632e-05
 Reference value :  1.32655e-05
 Reference value :  1.32685e-05
 Reference value :  1.32743e-05
 Reference value :  1.32816e-05
 Reference value :  1.32942e-05
 Reference value :  1.33168e-05
 Reference value :  1.33547e-05
 Reference value :  1.34221e-05
 Reference value :  1.35000e-05
 Reference value :  1.35000e-05
 Reference value :  1.35000e-05
 Reference value :  1.35001e-05
 Reference value :  1.35001e-05
 Reference value :  1.35001e-05
 Reference value :  1.35001e-05
 Reference value :  1.35001e-05
 Reference value :  1.35002e-05
 Reference value :  1.35002e-05
 Reference value :  1.35004e-05
 Reference value :  1.35006e-05
 Reference value :  1.35010e-05
 Reference value :  1.35015e-05
 Reference value :  1.35020e-05
 Reference value :  1.35024e-05
 Reference value :  1.35030e-05
 Reference value :  1.35035e-05
 Reference value :  1.35042e-05
 Reference value :  1.35048e-05
 Reference value :  1.35055e-05
 Reference value :  1.35063e-05
 Reference value :  1.35071e-05
 Reference value :  1.35079e-05
 Reference value :  1.35087e-05
 Reference value :  1.35097e-05
 Reference value :  1.35110e-05
 Reference value :  1.35118e-05
 Reference value :  1.35129e-05
 Reference value :  1.35141e-05
 Reference value :  1.35152e-05
 Reference value :  1.35164e-05
 Reference value :  1.35172e-05
 Reference value :  1.35180e-05
 Reference value :  1.35189e-05
 Reference value :  1.35200e-05
 Reference value :  1.35210e-05
 Reference value :  1.35221e-05
 Reference value :  1.35233e-05
 Reference value :  1.35248e-05
 Reference value :  1.35266e-05
 Reference value :  1.35278e-05
 Reference value :  1.35291e-05
 Reference value :  1.35309e-05
 Reference value :  1.35325e-05
 Reference value :  1.35353e-05
 Reference value :  1.35385e-05
 Reference value :  1.35431e-05
 Reference value :  1.35487e-05
 Reference value :  1.35580e-05
 Reference value :  1.35683e-05
 Reference value :  1.35833e-05
 Reference value :  1.35990e-05
 Reference value :  1.36306e-05
 Reference value :  1.36787e-05
 Reference value :  1.37501e-05
 Reference value :  1.37501e-05
 Reference value :  1.37501e-05
 Reference value :  1.37502e-05
 Reference value :  1.37502e-05
 Reference value :  1.37502e-05
 Reference value :  1.37502e-05
 Reference value :  1.37502e-05
 Reference value :  1.37502e-05
 Reference value :  1.37502e-05
 Reference value :  1.37503e-05
 Reference value :  1.37503e-05
 Reference value :  1.37504e-05
 Reference value :  1.37506e-05
 Reference value :  1.37510e-05
 Reference value :  1.37513e-05
 Reference value :  1.37518e-05
 Reference value :  1.37523e-05
 Reference value :  1.37530e-05
 Reference value :  1.37538e-05
 Reference value :  1.37544e-05
 Reference value :  1.37552e-05
 Reference value :  1.37558e-05
 Reference value :  1.37565e-05
 Reference value :  1.37576e-05
 Reference value :  1.37587e-05
 Reference value :  1.37604e-05
 Reference value :  1.37628e-05
 Reference value :  1.37661e-05
 Reference value :  1.37726e-05
 Reference value :  1.37845e-05
 Reference value :  1.38051e-05
 Reference value :  1.38451e-05
 Reference value :  1.39158e-05
 Reference value :  1.40000e-05
 Reference value :  1.40000e-05
 Reference value :  1.40000e-05
 Reference value :  1.40001e-05
 Reference value :  1.40001e-05
 Reference value :  1.40001e-05
 Reference value :  1.40001e-05
 Reference value :  1.40001e-05
 Reference value :  1.40002e-05
 Reference value :  1.40002e-05
 Reference value :  1.40004e-05
 Reference value :  1.40006e-05
 Reference value :  1.40010e-05
 Reference value :  1.40015e-05
 Reference value :  1.40020e-05
 Reference value :  1.40024e-05
 Reference value :  1.40030e-05
 Reference value :  1.40035e-05
 Reference value :  1.40042e-05
 Reference value :  1.40048e-05
 Reference value :  1.40056e-05
 Reference value :  1.40065e-05
 Reference value :  1.40076e-05
 Reference value :  1.40089e-05
 Reference value :  1.40098e-05
 Reference value :  1.40109e-05
 Reference value :  1.40120e-05
 Reference value :  1.40132e-05
 Reference value :  1.40149e-05
 Reference value :  1.40166e-05
 Reference value :  1.40199e-05
 Reference value :  1.40246e-05
 Reference value :  1.40327e-05
 Reference value :  1.40472e-05
 Reference value :  1.40715e-05
 Reference value :  1.41163e-05
 Reference value :  1.41947e-05
 Reference value :  1.42501e-05
 Reference value :  1.42501e-05
 Reference value :  1.42501e-05
 Reference value :  1.42502e-05
 Reference value :  1.42502e-05
 Reference value :  1.42502e-05
 Reference value :  1.42502e-05
 Reference value :  1.42502e-05
 Reference value :  1.42502e-05
 Reference value :  1.42502e-05
 Reference value :  1.42503e-05
 Reference value :  1.42503e-05
 Reference value :  1.42504e-05
 Reference value :  1.42506e-05
 Reference value :  1.42510e-05
 Reference value :  1.42513e-05
 Reference value :  1.42518e-05
 Reference value :  1.42523e-05
 Reference value :  1.42530e-05
 Reference value :  1.42538e-05
 Reference value :  1.42544e-05
 Reference value :  1.42551e-05
 Reference value :  1.42558e-05
 Reference value :  1.42565e-05
 Reference value :  1.42573e-05
 Reference value :  1.42582e-05
 Reference value :  1.42598e-05
 Reference value :  1.42620e-05
 Reference value :  1.42648e-05
 Reference value :  1.42703e-05
 Reference value :  1.42815e-05
 Reference value :  1.43004e-05
 Reference value :  1.43382e-05
 Reference value :  1.44086e-05
 Reference value :  1.45000e-05
 Reference value :  1.45000e-05
 Reference value :  1.45000e-05
 Reference value :  1.45001e-05
 Reference value :  1.45001e-05
 Reference value :  1.45001e-05
 Reference value :  1.45001e-05
 Reference value :  1.45001e-05
 Reference value :  1.45002e-05
 Reference value :  1.45002e-05
 Reference value :  1.45004e-05
 Reference value :  1.45006e-05
 Reference value :  1.45010e-05
 Reference value :  1.45015e-05
 Reference value :  1.45020e-05
 Reference value :  1.45024e-05
 Reference value :  1.45030e-05
 Reference value :  1.45035e-05
 Reference value :  1.45041e-05
 Reference value :  1.45048e-05
 Reference value :  1.45054e-05
 Reference value :  1.45062e-05
 Reference value :  1.45071e-05
 Reference value :  1.45078e-05
 Reference value :  1.45086e-05
 Reference value :  1.45096e-05
 Reference value :  1.45109e-05
 Reference value :  1.45127e-05
 Reference value :  1.45147e-05
 Reference value :  1.45164e-05
 Reference value :  1.45178e-05
 Reference value :  1.45191e-05
 Reference value :  1.45205e-05
 Reference value :  1.45219e-05
 Reference value :  1.45234e-05
 Reference value :  1.45251e-05
 Reference value :  1.45273e-05
 Reference value :  1.45309e-05
 Reference value :  1.45376e-05
 Reference value :  1.45450e-05
 Reference value :  1.45537e-05
 Reference value :  1.45646e-05
 Reference value :  1.45774e-05
 Reference value :  1.45995e-05
 Reference value :  1.46304e-05
 Reference value :  1.46844e-05
 Reference value :  1.47501e-05
 Reference value :  1.47501e-05
 Reference value :  1.47501e-05
 Reference value :  1.47502e-05
 Reference value :  1.47502e-05
 Reference value :  1.47502e-05
 Reference value :  1.47502e-05
 Reference value :  1.47502e-05
 Reference value :  1.47502e-05
 Reference value :  1.47502e-05
 Reference value :  1.47503e-05
 Reference value :  1.47503e-05
 Reference value :  1.47504e-05
 Reference value :  1.47506e-05
 Reference value :  1.47510e-05
 Reference value :  1.47513e-05
 Reference value :  1.47518e-05
 Reference value :  1.47523e-05
 Reference value :  1.47530e-05
 Reference value :  1.47538e-05
 Reference value :  1.47544e-05
 Reference value :  1.47552e-05
 Reference value :  1.47558e-05
 Reference value :  1.47565e-05
 Reference value :  1.47576e-05
 Reference value :  1.47587e-05
 Reference value :  1.47604e-05
 Reference value :  1.47628e-05
 Reference value :  1.47660e-05
 Reference value :  1.47725e-05
 Reference value :  1.47845e-05
 Reference value :  1.48053e-05
 Reference value :  1.48459e-05
 Reference value :  1.49181e-05
 Reference value :  1.50000e-05
 Reference value :  1.50000e-05
 Reference value :  1.50000e-05
 Reference value :  1.50001e-05
 Reference value :  1.50001e-05
 Reference value :  1.50001e-05
 Reference value :  1.50001e-05
 Reference value :  1.50001e-05
 Reference value :  1.50002e-05
 Reference value :  1.50002e-05
 Reference value :  1.50004e-05
 Reference value :  1.50006e-05
 Reference value :  1.50010e-05
 Reference value :  1.50015e-05
 Reference value :  1.50020e-05
 Reference value :  1.50024e-05
 Reference value :  1.50030e-05
 Reference value :  1.50035e-05
 Reference value :  1.50042e-05
 Reference value :  1.50048e-05
 Reference value :  1.50055e-05
 Reference value :  1.50065e-05
 Reference value :  1.50075e-05
 Reference value :  1.50091e-05
 Reference value :  1.50102e-05
 Reference value :  1.50113e-05
 Reference value :  1.50126e-05
 Reference value :  1.50138e-05
 Reference value :  1.50152e-05
 Reference value :  1.50180e-05
 Reference value :  1.50216e-05
 Reference value :  1.50279e-05
 Reference value :  1.50383e-05
 Reference value :  1.50551e-05
 Reference value :  1.50856e-05
[...]
 Reference value :  1.31750e-04
 Reference value :  1.31751e-04
 Reference value :  1.31751e-04
 Reference value :  1.31751e-04
 Reference value :  1.31752e-04
 Reference value :  1.31752e-04
 Reference value :  1.31753e-04
 Reference value :  1.31754e-04
 Reference value :  1.31754e-04
 Reference value :  1.31755e-04
 Reference value :  1.31756e-04
 Reference value :  1.31757e-04
 Reference value :  1.31758e-04
 Reference value :  1.31759e-04
 Reference value :  1.31760e-04
 Reference value :  1.31763e-04
 Reference value :  1.31766e-04
 Reference value :  1.31773e-04
 Reference value :  1.31784e-04
 Reference value :  1.31804e-04
 Reference value :  1.31843e-04
 Reference value :  1.31911e-04
 Reference value :  1.32000e-04
 Reference value :  1.32000e-04
 Reference value :  1.32000e-04
 Reference value :  1.32000e-04
 Reference value :  1.32000e-04
 Reference value :  1.32000e-04
 Reference value :  1.32000e-04
 Reference value :  1.32000e-04
 Reference value :  1.32000e-04
 Reference value :  1.32000e-04
 Reference value :  1.32000e-04
 Reference value :  1.32001e-04
 Reference value :  1.32001e-04
 Reference value :  1.32001e-04
 Reference value :  1.32002e-04
 Reference value :  1.32002e-04
 Reference value :  1.32003e-04
 Reference value :  1.32003e-04
 Reference value :  1.32004e-04
 Reference value :  1.32005e-04
 Reference value :  1.32006e-04
 Reference value :  1.32007e-04
 Reference value :  1.32008e-04
 Reference value :  1.32009e-04
 Reference value :  1.32010e-04
 Reference value :  1.32011e-04
 Reference value :  1.32012e-04
 Reference value :  1.32013e-04
 Reference value :  1.32015e-04
 Reference value :  1.32017e-04
 Reference value :  1.32020e-04
 Reference value :  1.32025e-04
 Reference value :  1.32033e-04
 Reference value :  1.32047e-04
 Reference value :  1.32072e-04
 Reference value :  1.32117e-04
 Reference value :  1.32195e-04
 Reference value :  1.32250e-04
 Reference value :  1.32250e-04
 Reference value :  1.32250e-04
 Reference value :  1.32250e-04
 Reference value :  1.32250e-04
 Reference value :  1.32250e-04
 Reference value :  1.32250e-04
 Reference value :  1.32250e-04
 Reference value :  1.32250e-04
 Reference value :  1.32250e-04
 Reference value :  1.32250e-04
 Reference value :  1.32250e-04
 Reference value :  1.32250e-04
 Reference value :  1.32251e-04
 Reference value :  1.32251e-04
 Reference value :  1.32251e-04
 Reference value :  1.32252e-04
 Reference value :  1.32252e-04
 Reference value :  1.32253e-04
 Reference value :  1.32254e-04
 Reference value :  1.32254e-04
 Reference value :  1.32255e-04
 Reference value :  1.32256e-04
 Reference value :  1.32256e-04
 Reference value :  1.32257e-04
 Reference value :  1.32258e-04
 Reference value :  1.32260e-04
 Reference value :  1.32262e-04
 Reference value :  1.32265e-04
 Reference value :  1.32270e-04
 Reference value :  1.32281e-04
 Reference value :  1.32300e-04
 Reference value :  1.32338e-04
 Reference value :  1.32409e-04
 Reference value :  1.32500e-04
 Reference value :  1.32500e-04
 Reference value :  1.32500e-04
 Reference value :  1.32500e-04
 Reference value :  1.32500e-04
 Reference value :  1.32500e-04
 Reference value :  1.32500e-04
 Reference value :  1.32500e-04
 Reference value :  1.32500e-04
 Reference value :  1.32500e-04
 Reference value :  1.32500e-04
 Reference value :  1.32501e-04
 Reference value :  1.32501e-04
 Reference value :  1.32501e-04
 Reference value :  1.32502e-04
 Reference value :  1.32502e-04
 Reference value :  1.32503e-04
 Reference value :  1.32503e-04
 Reference value :  1.32504e-04
 Reference value :  1.32505e-04
 Reference value :  1.32505e-04
 Reference value :  1.32506e-04
 Reference value :  1.32507e-04
 Reference value :  1.32508e-04
 Reference value :  1.32509e-04
 Reference value :  1.32510e-04
 Reference value :  1.32511e-04
 Reference value :  1.32513e-04
 Reference value :  1.32515e-04
 Reference value :  1.32516e-04
 Reference value :  1.32518e-04
 Reference value :  1.32519e-04
 Reference value :  1.32520e-04
 Reference value :  1.32522e-04
 Reference value :  1.32523e-04
 Reference value :  1.32524e-04
 Reference value :  1.32527e-04
 Reference value :  1.32529e-04
 Reference value :  1.32534e-04
 Reference value :  1.32541e-04
 Reference value :  1.32553e-04
 Reference value :  1.32564e-04
 Reference value :  1.32578e-04
 Reference value :  1.32595e-04
 Reference value :  1.32612e-04
 Reference value :  1.32638e-04
 Reference value :  1.32665e-04
 Reference value :  1.32718e-04
 Reference value :  1.32750e-04
 Reference value :  1.32750e-04
 Reference value :  1.32750e-04
 Reference value :  1.32750e-04
 Reference value :  1.32750e-04
 Reference value :  1.32750e-04
 Reference value :  1.32750e-04
 Reference value :  1.32750e-04
 Reference value :  1.32750e-04
 Reference value :  1.32750e-04
 Reference value :  1.32750e-04
 Reference value :  1.32750e-04
 Reference value :  1.32750e-04
 Reference value :  1.32751e-04
 Reference value :  1.32751e-04
 Reference value :  1.32751e-04
 Reference value :  1.32752e-04
 Reference value :  1.32752e-04
 Reference value :  1.32753e-04
 Reference value :  1.32754e-04
 Reference value :  1.32754e-04
 Reference value :  1.32755e-04
 Reference value :  1.32756e-04
 Reference value :  1.32757e-04
 Reference value :  1.32758e-04
 Reference value :  1.32759e-04
 Reference value :  1.32760e-04
 Reference value :  1.32763e-04
 Reference value :  1.32766e-04
 Reference value :  1.32772e-04
 Reference value :  1.32785e-04
 Reference value :  1.32805e-04
 Reference value :  1.32847e-04
 Reference value :  1.32921e-04
 Reference value :  1.33000e-04
 Reference value :  1.33000e-04
 Reference value :  1.33000e-04
 Reference value :  1.33000e-04
 Reference value :  1.33000e-04
 Reference value :  1.33000e-04
 Reference value :  1.33000e-04
 Reference value :  1.33000e-04
 Reference value :  1.33000e-04
 Reference value :  1.33000e-04
 Reference value :  1.33000e-04
 Reference value :  1.33001e-04
 Reference value :  1.33001e-04
 Reference value :  1.33001e-04
 Reference value :  1.33002e-04
 Reference value :  1.33002e-04
 Reference value :  1.33003e-04
 Reference value :  1.33003e-04
 Reference value :  1.33004e-04
 Reference value :  1.33005e-04
 Reference value :  1.33006e-04
 Reference value :  1.33007e-04
 Reference value :  1.33008e-04
 Reference value :  1.33009e-04
 Reference value :  1.33010e-04
 Reference value :  1.33011e-04
 Reference value :  1.33012e-04
 Reference value :  1.33013e-04
 Reference value :  1.33015e-04
 Reference value :  1.33017e-04
 Reference value :  1.33020e-04
 Reference value :  1.33025e-04
 Reference value :  1.33033e-04
 Reference value :  1.33048e-04
 Reference value :  1.33073e-04
 Reference value :  1.33119e-04
 Reference value :  1.33200e-04
 Reference value :  1.33250e-04
 Reference value :  1.33250e-04
 Reference value :  1.33250e-04
 Reference value :  1.33250e-04
 Reference value :  1.33250e-04
 Reference value :  1.33250e-04
 Reference value :  1.33250e-04
 Reference value :  1.33250e-04
 Reference value :  1.33250e-04
 Reference value :  1.33250e-04
 Reference value :  1.33250e-04
 Reference value :  1.33250e-04
 Reference value :  1.33250e-04
 Reference value :  1.33251e-04
 Reference value :  1.33251e-04
 Reference value :  1.33251e-04
 Reference value :  1.33252e-04
 Reference value :  1.33252e-04
 Reference value :  1.33253e-04
 Reference value :  1.33254e-04
 Reference value :  1.33254e-04
 Reference value :  1.33255e-04
 Reference value :  1.33256e-04
 Reference value :  1.33256e-04
 Reference value :  1.33257e-04
 Reference value :  1.33258e-04
 Reference value :  1.33260e-04
 Reference value :  1.33262e-04
 Reference value :  1.33265e-04
 Reference value :  1.33270e-04
 Reference value :  1.33281e-04
 Reference value :  1.33300e-04
 Reference value :  1.33338e-04
 Reference value :  1.33409e-04
 Reference value :  1.33500e-04
 Reference value :  1.33500e-04
 Reference value :  1.33500e-04
 Reference value :  1.33500e-04
 Reference value :  1.33500e-04
 Reference value :  1.33500e-04
 Reference value :  1.33500e-04
 Reference value :  1.33500e-04
 Reference value :  1.33500e-04
 Reference value :  1.33500e-04
 Reference value :  1.33500e-04
 Reference value :  1.33501e-04
 Reference value :  1.33501e-04
 Reference value :  1.33501e-04
 Reference value :  1.33502e-04
 Reference value :  1.33502e-04
 Reference value :  1.33503e-04
 Reference value :  1.33503e-04
 Reference value :  1.33504e-04
 Reference value :  1.33505e-04
 Reference value :  1.33505e-04
 Reference value :  1.33506e-04
 Reference value :  1.33507e-04
 Reference value :  1.33508e-04
 Reference value :  1.33509e-04
 Reference value :  1.33510e-04
 Reference value :  1.33511e-04
 Reference value :  1.33513e-04
 Reference value :  1.33515e-04
 Reference value :  1.33516e-04
 Reference value :  1.33518e-04
 Reference value :  1.33519e-04
 Reference value :  1.33520e-04
 Reference value :  1.33521e-04
 Reference value :  1.33523e-04
 Reference value :  1.33524e-04
 Reference value :  1.33526e-04
 Reference value :  1.33528e-04
 Reference value :  1.33533e-04
 Reference value :  1.33539e-04
 Reference value :  1.33547e-04
 Reference value :  1.33555e-04
 Reference value :  1.33564e-04
 Reference value :  1.33578e-04
 Reference value :  1.33600e-04
 Reference value :  1.33629e-04
 Reference value :  1.33667e-04
 Reference value :  1.33710e-04
 Reference value :  1.33750e-04
 Reference value :  1.33750e-04
 Reference value :  1.33750e-04
 Reference value :  1.33750e-04
 Reference value :  1.33750e-04
 Reference value :  1.33750e-04
 Reference value :  1.33750e-04
 Reference value :  1.33750e-04
 Reference value :  1.33750e-04
 Reference value :  1.33750e-04
 Reference value :  1.33750e-04
 Reference value :  1.33750e-04
 Reference value :  1.33750e-04
 Reference value :  1.33751e-04
 Reference value :  1.33751e-04
 Reference value :  1.33751e-04
 Reference value :  1.33752e-04
 Reference value :  1.33752e-04
 Reference value :  1.33753e-04
 Reference value :  1.33754e-04
 Reference value :  1.33754e-04
 Reference value :  1.33755e-04
 Reference value :  1.33756e-04
 Reference value :  1.33757e-04
 Reference value :  1.33758e-04
 Reference value :  1.33759e-04
 Reference value :  1.33760e-04
 Reference value :  1.33763e-04
 Reference value :  1.33766e-04
 Reference value :  1.33772e-04
 Reference value :  1.33784e-04
 Reference value :  1.33805e-04
 Reference value :  1.33846e-04
 Reference value :  1.33918e-04
 Reference value :  1.34000e-04
 Reference value :  1.34000e-04
 Reference value :  1.34000e-04
 Reference value :  1.34000e-04
 Reference value :  1.34000e-04
 Reference value :  1.34000e-04
 Reference value :  1.34000e-04
 Reference value :  1.34000e-04
 Reference value :  1.34000e-04
 Reference value :  1.34000e-04
 Reference value :  1.34000e-04
 Reference value :  1.34001e-04
 Reference value :  1.34001e-04
 Reference value :  1.34001e-04
 Reference value :  1.34002e-04
 Reference value :  1.34002e-04
 Reference value :  1.34003e-04
 Reference value :  1.34003e-04
 Reference value :  1.34004e-04
 Reference value :  1.34005e-04
 Reference value :  1.34006e-04
 Reference value :  1.34007e-04
 Reference value :  1.34008e-04
 Reference value :  1.34009e-04
 Reference value :  1.34010e-04
 Reference value :  1.34011e-04
 Reference value :  1.34013e-04
 Reference value :  1.34014e-04
 Reference value :  1.34015e-04
 Reference value :  1.34018e-04
 Reference value :  1.34022e-04
 Reference value :  1.34028e-04
 Reference value :  1.34039e-04
 Reference value :  1.34055e-04
 Reference value :  1.34087e-04
 Reference value :  1.34147e-04
 Reference value :  1.34250e-04
 Reference value :  1.34250e-04
 Reference value :  1.34250e-04
 Reference value :  1.34250e-04
 Reference value :  1.34250e-04
 Reference value :  1.34250e-04
 Reference value :  1.34250e-04
 Reference value :  1.34250e-04
 Reference value :  1.34250e-04
 Reference value :  1.34250e-04
 Reference value :  1.34250e-04
 Reference value :  1.34250e-04
 Reference value :  1.34250e-04
 Reference value :  1.34251e-04
 Reference value :  1.34251e-04
 Reference value :  1.34251e-04
 Reference value :  1.34252e-04
 Reference value :  1.34252e-04
 Reference value :  1.34253e-04
 Reference value :  1.34254e-04
 Reference value :  1.34254e-04
 Reference value :  1.34255e-04
 Reference value :  1.34256e-04
 Reference value :  1.34256e-04
 Reference value :  1.34257e-04
 Reference value :  1.34258e-04
 Reference value :  1.34260e-04
 Reference value :  1.34262e-04
 Reference value :  1.34265e-04
 Reference value :  1.34270e-04
 Reference value :  1.34281e-04
 Reference value :  1.34301e-04
 Reference value :  1.34340e-04
 Reference value :  1.34415e-04
 Reference value :  1.34500e-04
 Reference value :  1.34500e-04
 Reference value :  1.34500e-04
 Reference value :  1.34500e-04
 Reference value :  1.34500e-04
 Reference value :  1.34500e-04
 Reference value :  1.34500e-04
 Reference value :  1.34500e-04
 Reference value :  1.34500e-04
 Reference value :  1.34500e-04
 Reference value :  1.34500e-04
 Reference value :  1.34501e-04
 Reference value :  1.34501e-04
 Reference value :  1.34501e-04
 Reference value :  1.34502e-04
 Reference value :  1.34502e-04
 Reference value :  1.34503e-04
 Reference value :  1.34503e-04
 Reference value :  1.34504e-04
 Reference value :  1.34505e-04
 Reference value :  1.34505e-04
 Reference value :  1.34506e-04
 Reference value :  1.34507e-04
 Reference value :  1.34508e-04
 Reference value :  1.34509e-04
 Reference value :  1.34510e-04
 Reference value :  1.34511e-04
 Reference value :  1.34513e-04
 Reference value :  1.34515e-04
 Reference value :  1.34516e-04
 Reference value :  1.34518e-04
 Reference value :  1.34519e-04
 Reference value :  1.34520e-04
 Reference value :  1.34521e-04
 Reference value :  1.34522e-04
 Reference value :  1.34524e-04
 Reference value :  1.34525e-04
 Reference value :  1.34527e-04
 Reference value :  1.34530e-04
 Reference value :  1.34535e-04
 Reference value :  1.34540e-04
 Reference value :  1.34545e-04
 Reference value :  1.34553e-04
 Reference value :  1.34569e-04
 Reference value :  1.34595e-04
 Reference value :  1.34642e-04
 Reference value :  1.34722e-04
 Reference value :  1.34750e-04
 Reference value :  1.34750e-04
 Reference value :  1.34750e-04
 Reference value :  1.34750e-04
 Reference value :  1.34750e-04
 Reference value :  1.34750e-04
 Reference value :  1.34750e-04
 Reference value :  1.34750e-04
 Reference value :  1.34750e-04
 Reference value :  1.34750e-04
 Reference value :  1.34750e-04
 Reference value :  1.34750e-04
 Reference value :  1.34750e-04
 Reference value :  1.34751e-04
 Reference value :  1.34751e-04
 Reference value :  1.34751e-04
 Reference value :  1.34752e-04
 Reference value :  1.34752e-04
 Reference value :  1.34753e-04
 Reference value :  1.34754e-04
 Reference value :  1.34754e-04
 Reference value :  1.34755e-04
 Reference value :  1.34756e-04
 Reference value :  1.34756e-04
 Reference value :  1.34758e-04
 Reference value :  1.34759e-04
 Reference value :  1.34760e-04
 Reference value :  1.34763e-04
 Reference value :  1.34766e-04
 Reference value :  1.34772e-04
 Reference value :  1.34784e-04
 Reference value :  1.34803e-04
 Reference value :  1.34842e-04
 Reference value :  1.34911e-04
 Reference value :  1.35000e-04
 Reference value :  1.35000e-04
 Reference value :  1.35000e-04
 Reference value :  1.35000e-04
 Reference value :  1.35000e-04
 Reference value :  1.35000e-04
 Reference value :  1.35000e-04
 Reference value :  1.35000e-04
 Reference value :  1.35000e-04
 Reference value :  1.35000e-04
 Reference value :  1.35000e-04
 Reference value :  1.35001e-04
 Reference value :  1.35001e-04
 Reference value :  1.35001e-04
 Reference value :  1.35002e-04
 Reference value :  1.35002e-04
 Reference value :  1.35003e-04
 Reference value :  1.35003e-04
 Reference value :  1.35004e-04
 Reference value :  1.35005e-04
 Reference value :  1.35006e-04
 Reference value :  1.35006e-04
 Reference value :  1.35008e-04
 Reference value :  1.35009e-04
 Reference value :  1.35010e-04
 Reference value :  1.35011e-04
 Reference value :  1.35012e-04
 Reference value :  1.35014e-04
 Reference value :  1.35015e-04
 Reference value :  1.35017e-04
 Reference value :  1.35021e-04
 Reference value :  1.35026e-04
 Reference value :  1.35035e-04
 Reference value :  1.35050e-04
 Reference value :  1.35076e-04
 Reference value :  1.35123e-04
 Reference value :  1.35205e-04
 Reference value :  1.35250e-04
 Reference value :  1.35250e-04
 Reference value :  1.35250e-04
 Reference value :  1.35250e-04
 Reference value :  1.35250e-04
 Reference value :  1.35250e-04
 Reference value :  1.35250e-04
 Reference value :  1.35250e-04
 Reference value :  1.35250e-04
 Reference value :  1.35250e-04
 Reference value :  1.35250e-04
 Reference value :  1.35250e-04
 Reference value :  1.35250e-04
 Reference value :  1.35251e-04
 Reference value :  1.35251e-04
 Reference value :  1.35251e-04
 Reference value :  1.35252e-04
 Reference value :  1.35252e-04
 Reference value :  1.35253e-04
 Reference value :  1.35254e-04
 Reference value :  1.35254e-04
 Reference value :  1.35255e-04
 Reference value :  1.35256e-04
 Reference value :  1.35256e-04
 Reference value :  1.35257e-04
 Reference value :  1.35258e-04
 Reference value :  1.35260e-04
 Reference value :  1.35262e-04
 Reference value :  1.35265e-04
 Reference value :  1.35270e-04
 Reference value :  1.35281e-04
 Reference value :  1.35301e-04
 Reference value :  1.35340e-04
 Reference value :  1.35415e-04
 Reference value :  1.35500e-04
 Reference value :  1.35500e-04
 Reference value :  1.35500e-04
 Reference value :  1.35500e-04
 Reference value :  1.35500e-04
 Reference value :  1.35500e-04
 Reference value :  1.35500e-04
 Reference value :  1.35500e-04
 Reference value :  1.35500e-04
 Reference value :  1.35500e-04
 Reference value :  1.35500e-04
 Reference value :  1.35501e-04
 Reference value :  1.35501e-04
 Reference value :  1.35501e-04
 Reference value :  1.35502e-04
 Reference value :  1.35502e-04
 Reference value :  1.35503e-04
 Reference value :  1.35503e-04
 Reference value :  1.35504e-04
 Reference value :  1.35505e-04
 Reference value :  1.35505e-04
 Reference value :  1.35506e-04
 Reference value :  1.35507e-04
 Reference value :  1.35508e-04
 Reference value :  1.35508e-04
 Reference value :  1.35509e-04
 Reference value :  1.35511e-04
 Reference value :  1.35513e-04
 Reference value :  1.35515e-04
 Reference value :  1.35516e-04
 Reference value :  1.35518e-04
 Reference value :  1.35520e-04
 Reference value :  1.35522e-04
 Reference value :  1.35525e-04
 Reference value :  1.35529e-04
 Reference value :  1.35536e-04
 Reference value :  1.35547e-04
 Reference value :  1.35565e-04
 Reference value :  1.35601e-04
 Reference value :  1.35670e-04
 Reference value :  1.35750e-04
 Reference value :  1.35750e-04
 Reference value :  1.35750e-04
 Reference value :  1.35750e-04
 Reference value :  1.35750e-04
 Reference value :  1.35750e-04
 Reference value :  1.35750e-04
 Reference value :  1.35750e-04
 Reference value :  1.35750e-04
 Reference value :  1.35750e-04
 Reference value :  1.35750e-04
 Reference value :  1.35750e-04
 Reference value :  1.35750e-04
 Reference value :  1.35751e-04
 Reference value :  1.35751e-04
 Reference value :  1.35751e-04
 Reference value :  1.35752e-04
 Reference value :  1.35752e-04
 Reference value :  1.35753e-04
 Reference value :  1.35754e-04
 Reference value :  1.35755e-04
 Reference value :  1.35756e-04
 Reference value :  1.35757e-04
 Reference value :  1.35758e-04
 Reference value :  1.35760e-04
 Reference value :  1.35762e-04
 Reference value :  1.35765e-04
 Reference value :  1.35770e-04
 Reference value :  1.35782e-04
 Reference value :  1.35804e-04
 Reference value :  1.35850e-04
 Reference value :  1.35941e-04
 Reference value :  1.36000e-04
No. of Data Rows : 21175
ngspice-44 done
