
Note: Compatibility modes selected: hs a


Circuit: ** sch_path: /home/audrey/cace/sar-adc-using-sky130-pdk/runs/run_2025-08-29_18-17-45/parameters/power/run_08/power_consumption.sch

option SCALE: Scale is set to 1e-06 for instance and model parameters
option SCALE: Scale is set to 1e-06 for instance and model parameters
option SCALE: Scale is set to 1e-06 for instance and model parameters
option SCALE: Scale is set to 1e-06 for instance and model parameters
Doing analysis at TEMP = 27.000000 and TNOM = 27.000000

Using KLU as Direct Linear Solver
Operating point simulation skipped by 'uic',
  now using transient initial conditions.
 Reference value :  5.00000e-12
 Reference value :  5.42000e-12
 Reference value :  8.75097e-12
 Reference value :  2.34844e-11
 Reference value :  1.20658e-10
 Reference value :  4.94906e-10
 Reference value :  5.30565e-10
 Reference value :  8.04557e-10
 Reference value :  1.32708e-09
 Reference value :  2.12362e-09
 Reference value :  2.68573e-09
 Reference value :  4.12109e-09
 Reference value :  5.87206e-09
 Reference value :  6.82821e-09
 Reference value :  8.14703e-09
 Reference value :  9.41636e-09
 Reference value :  1.01791e-08
 Reference value :  1.07872e-08
 Reference value :  1.21350e-08
 Reference value :  1.39594e-08
 Reference value :  1.99693e-08
 Reference value :  2.49715e-08
 Reference value :  3.45687e-08
 Reference value :  5.40063e-08
 Reference value :  1.35464e-07
 Reference value :  3.44507e-07
 Reference value :  5.22604e-07
 Reference value :  8.39067e-07
 Reference value :  1.00065e-06
 Reference value :  1.00100e-06
 Reference value :  1.00109e-06
 Reference value :  1.00140e-06
 Reference value :  1.00161e-06
 Reference value :  1.00244e-06
 Reference value :  1.00406e-06
 Reference value :  1.00516e-06
 Reference value :  1.00738e-06
 Reference value :  1.01302e-06
 Reference value :  1.04515e-06
 Reference value :  1.29227e-06
 Reference value :  2.00005e-06
 Reference value :  2.00035e-06
 Reference value :  2.00053e-06
 Reference value :  2.00074e-06
 Reference value :  2.00135e-06
 Reference value :  2.00219e-06
 Reference value :  2.00307e-06
 Reference value :  2.00415e-06
 Reference value :  2.00555e-06
 Reference value :  2.00783e-06
 Reference value :  2.00889e-06
 Reference value :  2.00999e-06
 Reference value :  2.01145e-06
 Reference value :  2.01279e-06
 Reference value :  2.01600e-06
 Reference value :  2.02663e-06
 Reference value :  2.08199e-06
 Reference value :  2.50839e-06
 Reference value :  3.00050e-06
 Reference value :  3.00065e-06
 Reference value :  3.00100e-06
 Reference value :  3.00110e-06
 Reference value :  3.00151e-06
 Reference value :  3.00211e-06
 Reference value :  3.00295e-06
 Reference value :  3.00357e-06
 Reference value :  3.00401e-06
 Reference value :  3.00501e-06
 Reference value :  3.00625e-06
 Reference value :  3.01034e-06
 Reference value :  3.02808e-06
 Reference value :  3.16662e-06
 Reference value :  4.00000e-06
 Reference value :  4.00015e-06
 Reference value :  4.00053e-06
 Reference value :  4.00074e-06
 Reference value :  4.00135e-06
 Reference value :  4.00219e-06
 Reference value :  4.00306e-06
 Reference value :  4.00405e-06
 Reference value :  4.00494e-06
 Reference value :  4.00606e-06
 Reference value :  4.00920e-06
 Reference value :  4.01174e-06
 Reference value :  4.01266e-06
 Reference value :  4.01458e-06
 Reference value :  4.01662e-06
 Reference value :  4.01946e-06
 Reference value :  4.02937e-06
 Reference value :  4.07671e-06
 Reference value :  4.34160e-06
 Reference value :  4.64083e-06
 Reference value :  5.00055e-06
 Reference value :  5.00085e-06
 Reference value :  5.00103e-06
 Reference value :  5.00124e-06
 Reference value :  5.00178e-06
 Reference value :  5.00212e-06
 Reference value :  5.00295e-06
 Reference value :  5.00404e-06
 Reference value :  5.00510e-06
 Reference value :  5.00644e-06
 Reference value :  5.00899e-06
 Reference value :  5.02077e-06
 Reference value :  5.05828e-06
 Reference value :  5.80853e-06
 Reference value :  6.00005e-06
 Reference value :  6.00035e-06
 Reference value :  6.00053e-06
 Reference value :  6.00074e-06
 Reference value :  6.00101e-06
 Reference value :  6.00135e-06
 Reference value :  6.00219e-06
 Reference value :  6.00261e-06
 Reference value :  6.00306e-06
 Reference value :  6.00413e-06
 Reference value :  6.00548e-06
 Reference value :  6.00608e-06
 Reference value :  6.00763e-06
 Reference value :  6.00850e-06
 Reference value :  6.01080e-06
 Reference value :  6.01215e-06
 Reference value :  6.01904e-06
 Reference value :  6.03903e-06
 Reference value :  6.11525e-06
 Reference value :  6.41578e-06
 Reference value :  7.00055e-06
 Reference value :  7.00065e-06
 Reference value :  7.00100e-06
 Reference value :  7.00110e-06
 Reference value :  7.00151e-06
 Reference value :  7.00212e-06
 Reference value :  7.00250e-06
 Reference value :  7.00357e-06
 Reference value :  7.00402e-06
 Reference value :  7.00501e-06
 Reference value :  7.00624e-06
 Reference value :  7.00851e-06
 Reference value :  7.01330e-06
 Reference value :  7.04850e-06
 Reference value :  7.16919e-06
 Reference value :  7.65192e-06
 Reference value :  8.00015e-06
 Reference value :  8.00050e-06
 Reference value :  8.00060e-06
 Reference value :  8.00101e-06
 Reference value :  8.00178e-06
 Reference value :  8.00219e-06
 Reference value :  8.00306e-06
 Reference value :  8.00405e-06
 Reference value :  8.00453e-06
 Reference value :  8.00494e-06
 Reference value :  8.00606e-06
 Reference value :  8.00782e-06
 Reference value :  8.00920e-06
 Reference value :  8.01057e-06
 Reference value :  8.01266e-06
 Reference value :  8.01352e-06
 Reference value :  8.01458e-06
 Reference value :  8.01661e-06
 Reference value :  8.01946e-06
 Reference value :  8.03711e-06
 Reference value :  8.20148e-06
 Reference value :  8.33950e-06
 Reference value :  8.51510e-06
 Reference value :  9.00055e-06
 Reference value :  9.00085e-06
 Reference value :  9.00103e-06
 Reference value :  9.00124e-06
 Reference value :  9.00178e-06
 Reference value :  9.00212e-06
 Reference value :  9.00296e-06
 Reference value :  9.00404e-06
 Reference value :  9.00510e-06
 Reference value :  9.00644e-06
 Reference value :  9.01140e-06
 Reference value :  9.03327e-06
 Reference value :  9.20829e-06
 Reference value :  1.00000e-05
 Reference value :  1.00001e-05
 Reference value :  1.00005e-05
 Reference value :  1.00007e-05
 Reference value :  1.00014e-05
 Reference value :  1.00022e-05
 Reference value :  1.00031e-05
 Reference value :  1.00041e-05
 Reference value :  1.00055e-05
 Reference value :  1.00061e-05
 Reference value :  1.00076e-05
 Reference value :  1.00094e-05
 Reference value :  1.00148e-05
 Reference value :  1.00258e-05
 Reference value :  1.01131e-05
 Reference value :  1.07964e-05
 Reference value :  1.10005e-05
 Reference value :  1.10010e-05
 Reference value :  1.10011e-05
 Reference value :  1.10018e-05
 Reference value :  1.10021e-05
 Reference value :  1.10030e-05
 Reference value :  1.10040e-05
 Reference value :  1.10050e-05
 Reference value :  1.10070e-05
 Reference value :  1.10183e-05
 Reference value :  1.11692e-05
 Reference value :  1.20001e-05
 Reference value :  1.20006e-05
 Reference value :  1.20010e-05
 Reference value :  1.20022e-05
 Reference value :  1.20031e-05
 Reference value :  1.20040e-05
 Reference value :  1.20049e-05
 Reference value :  1.20067e-05
 Reference value :  1.20092e-05
 Reference value :  1.20117e-05
 Reference value :  1.20135e-05
 Reference value :  1.20156e-05
 Reference value :  1.20195e-05
 Reference value :  1.20293e-05
 Reference value :  1.20407e-05
 Reference value :  1.20494e-05
 Reference value :  1.20542e-05
 Reference value :  1.20780e-05
 Reference value :  1.21424e-05
 Reference value :  1.22361e-05
 Reference value :  1.22670e-05
 Reference value :  1.23497e-05
 Reference value :  1.23992e-05
 Reference value :  1.24921e-05
 Reference value :  1.30006e-05
 Reference value :  1.30010e-05
 Reference value :  1.30012e-05
 Reference value :  1.30021e-05
 Reference value :  1.30036e-05
 Reference value :  1.30046e-05
 Reference value :  1.30057e-05
 Reference value :  1.30114e-05
 Reference value :  1.30333e-05
 Reference value :  1.34088e-05
 Reference value :  1.40002e-05
 Reference value :  1.40005e-05
 Reference value :  1.40010e-05
 Reference value :  1.40022e-05
 Reference value :  1.40031e-05
 Reference value :  1.40047e-05
 Reference value :  1.40061e-05
 Reference value :  1.40076e-05
 Reference value :  1.40108e-05
 Reference value :  1.40258e-05
 Reference value :  1.42112e-05
 Reference value :  1.50005e-05
 Reference value :  1.50010e-05
 Reference value :  1.50015e-05
 Reference value :  1.50021e-05
 Reference value :  1.50036e-05
 Reference value :  1.50040e-05
 Reference value :  1.50055e-05
 Reference value :  1.50085e-05
 Reference value :  1.50284e-05
 Reference value :  1.53298e-05
 Reference value :  1.60000e-05
 Reference value :  1.60004e-05
 Reference value :  1.60005e-05
 Reference value :  1.60007e-05
 Reference value :  1.60014e-05
 Reference value :  1.60022e-05
 Reference value :  1.60026e-05
 Reference value :  1.60031e-05
 Reference value :  1.60036e-05
 Reference value :  1.60040e-05
 Reference value :  1.60045e-05
 Reference value :  1.60049e-05
 Reference value :  1.60061e-05
 Reference value :  1.60078e-05
 Reference value :  1.60092e-05
 Reference value :  1.60106e-05
 Reference value :  1.60119e-05
 Reference value :  1.60129e-05
 Reference value :  1.60149e-05
 Reference value :  1.60171e-05
 Reference value :  1.60203e-05
 Reference value :  1.60262e-05
 Reference value :  1.60291e-05
 Reference value :  1.60358e-05
 Reference value :  1.60425e-05
 Reference value :  1.60464e-05
 Reference value :  1.60525e-05
 Reference value :  1.60647e-05
 Reference value :  1.60953e-05
 Reference value :  1.61325e-05
 Reference value :  1.62126e-05
 Reference value :  1.64352e-05
 Reference value :  1.70005e-05
 Reference value :  1.70007e-05
 Reference value :  1.70010e-05
 Reference value :  1.70011e-05
 Reference value :  1.70012e-05
 Reference value :  1.70014e-05
 Reference value :  1.70020e-05
 Reference value :  1.70024e-05
 Reference value :  1.70029e-05
 Reference value :  1.70041e-05
 Reference value :  1.70046e-05
 Reference value :  1.70051e-05
 Reference value :  1.70064e-05
 Reference value :  1.70088e-05
 Reference value :  1.70197e-05
 Reference value :  1.70312e-05
 Reference value :  1.71920e-05
 Reference value :  1.73758e-05
 Reference value :  1.80000e-05
 Reference value :  1.80002e-05
 Reference value :  1.80005e-05
 Reference value :  1.80006e-05
 Reference value :  1.80007e-05
 Reference value :  1.80010e-05
 Reference value :  1.80019e-05
 Reference value :  1.80023e-05
 Reference value :  1.80032e-05
 Reference value :  1.80043e-05
 Reference value :  1.80050e-05
 Reference value :  1.80058e-05
 Reference value :  1.80064e-05
 Reference value :  1.80079e-05
 Reference value :  1.80097e-05
 Reference value :  1.80121e-05
 Reference value :  1.80179e-05
 Reference value :  1.80341e-05
 Reference value :  1.81623e-05
 Reference value :  1.86016e-05
 Reference value :  1.90006e-05
 Reference value :  1.90009e-05
 Reference value :  1.90010e-05
 Reference value :  1.90012e-05
 Reference value :  1.90014e-05
 Reference value :  1.90017e-05
 Reference value :  1.90020e-05
 Reference value :  1.90029e-05
 Reference value :  1.90035e-05
 Reference value :  1.90041e-05
 Reference value :  1.90046e-05
 Reference value :  1.90051e-05
 Reference value :  1.90057e-05
 Reference value :  1.90072e-05
 Reference value :  1.90080e-05
 Reference value :  1.90115e-05
 Reference value :  1.90165e-05
 Reference value :  1.90291e-05
 Reference value :  1.90615e-05
 Reference value :  1.92818e-05
 Reference value :  1.99955e-05
 Reference value :  2.00001e-05
 Reference value :  2.00004e-05
 Reference value :  2.00006e-05
 Reference value :  2.00010e-05
 Reference value :  2.00015e-05
 Reference value :  2.00023e-05
 Reference value :  2.00032e-05
 Reference value :  2.00042e-05
 Reference value :  2.00051e-05
 Reference value :  2.00069e-05
 Reference value :  2.00088e-05
 Reference value :  2.00097e-05
 Reference value :  2.00106e-05
 Reference value :  2.00116e-05
 Reference value :  2.00124e-05
 Reference value :  2.00139e-05
 Reference value :  2.00157e-05
 Reference value :  2.00167e-05
 Reference value :  2.00195e-05
 Reference value :  2.00251e-05
 Reference value :  2.00296e-05
 Reference value :  2.00383e-05
 Reference value :  2.00420e-05
 Reference value :  2.00498e-05
 Reference value :  2.00574e-05
 Reference value :  2.00857e-05
 Reference value :  2.01006e-05
 Reference value :  2.01115e-05
 Reference value :  2.01457e-05
 Reference value :  2.02282e-05
 Reference value :  2.05402e-05
 Reference value :  2.10006e-05
 Reference value :  2.10010e-05
 Reference value :  2.10015e-05
 Reference value :  2.10024e-05
 Reference value :  2.10041e-05
 Reference value :  2.10057e-05
 Reference value :  2.10072e-05
 Reference value :  2.10198e-05
 Reference value :  2.11944e-05
 Reference value :  2.20000e-05
 Reference value :  2.20005e-05
 Reference value :  2.20007e-05
 Reference value :  2.20015e-05
 Reference value :  2.20023e-05
 Reference value :  2.20032e-05
 Reference value :  2.20050e-05
 Reference value :  2.20064e-05
 Reference value :  2.20079e-05
 Reference value :  2.20108e-05
 Reference value :  2.20238e-05
 Reference value :  2.21615e-05
 Reference value :  2.30005e-05
 Reference value :  2.30010e-05
 Reference value :  2.30012e-05
 Reference value :  2.30017e-05
 Reference value :  2.30024e-05
 Reference value :  2.30041e-05
 Reference value :  2.30046e-05
 Reference value :  2.30065e-05
 Reference value :  2.30088e-05
 Reference value :  2.30135e-05
 Reference value :  2.30952e-05
 Reference value :  2.40000e-05
 Reference value :  2.40005e-05
 Reference value :  2.40007e-05
 Reference value :  2.40015e-05
 Reference value :  2.40027e-05
 Reference value :  2.40037e-05
 Reference value :  2.40047e-05
 Reference value :  2.40056e-05
 Reference value :  2.40078e-05
 Reference value :  2.40097e-05
 Reference value :  2.40116e-05
 Reference value :  2.40124e-05
 Reference value :  2.40140e-05
 Reference value :  2.40157e-05
 Reference value :  2.40195e-05
 Reference value :  2.40274e-05
 Reference value :  2.40333e-05
 Reference value :  2.40433e-05
 Reference value :  2.40571e-05
 Reference value :  2.41046e-05
 Reference value :  2.41169e-05
 Reference value :  2.41344e-05
 Reference value :  2.41850e-05
 Reference value :  2.42514e-05
 Reference value :  2.45462e-05
 Reference value :  2.50005e-05
 Reference value :  2.50010e-05
 Reference value :  2.50012e-05
 Reference value :  2.50017e-05
 Reference value :  2.50024e-05
 Reference value :  2.50041e-05
 Reference value :  2.50051e-05
 Reference value :  2.50072e-05
 Reference value :  2.50140e-05
 Reference value :  2.51013e-05
 Reference value :  2.60000e-05
 Reference value :  2.60005e-05
 Reference value :  2.60010e-05
 Reference value :  2.60023e-05
 Reference value :  2.60032e-05
 Reference value :  2.60043e-05
 Reference value :  2.60058e-05
 Reference value :  2.60071e-05
 Reference value :  2.60079e-05
 Reference value :  2.60097e-05
 Reference value :  2.60108e-05
 Reference value :  2.60144e-05
 Reference value :  2.60237e-05
 Reference value :  2.60883e-05
 Reference value :  2.63054e-05
 Reference value :  2.70005e-05
 Reference value :  2.70007e-05
 Reference value :  2.70010e-05
 Reference value :  2.70011e-05
 Reference value :  2.70014e-05
 Reference value :  2.70020e-05
 Reference value :  2.70029e-05
 Reference value :  2.70041e-05
 Reference value :  2.70046e-05
 Reference value :  2.70057e-05
 Reference value :  2.70065e-05
 Reference value :  2.70080e-05
 Reference value :  2.70099e-05
 Reference value :  2.70135e-05
 Reference value :  2.70217e-05
 Reference value :  2.70419e-05
 Reference value :  2.71616e-05
 Reference value :  2.80001e-05
 Reference value :  2.80006e-05
 Reference value :  2.80015e-05
 Reference value :  2.80023e-05
 Reference value :  2.80032e-05
 Reference value :  2.80047e-05
 Reference value :  2.80056e-05
 Reference value :  2.80069e-05
 Reference value :  2.80088e-05
 Reference value :  2.80097e-05
 Reference value :  2.80106e-05
 Reference value :  2.80116e-05
 Reference value :  2.80124e-05
 Reference value :  2.80131e-05
 Reference value :  2.80140e-05
 Reference value :  2.80157e-05
 Reference value :  2.80168e-05
 Reference value :  2.80179e-05
 Reference value :  2.80228e-05
 Reference value :  2.80280e-05
 Reference value :  2.80321e-05
 Reference value :  2.80359e-05
 Reference value :  2.80441e-05
 Reference value :  2.80484e-05
 Reference value :  2.80692e-05
 Reference value :  2.81056e-05
 Reference value :  2.81721e-05
 Reference value :  2.82486e-05
 Reference value :  2.85580e-05
 Reference value :  2.90005e-05
 Reference value :  2.90006e-05
 Reference value :  2.90009e-05
 Reference value :  2.90010e-05
 Reference value :  2.90012e-05
 Reference value :  2.90014e-05
 Reference value :  2.90020e-05
 Reference value :  2.90035e-05
 Reference value :  2.90046e-05
 Reference value :  2.90057e-05
 Reference value :  2.90072e-05
 Reference value :  2.90107e-05
 Reference value :  2.90194e-05
 Reference value :  2.90528e-05
 Reference value :  2.90973e-05
 Reference value :  2.93644e-05
 Reference value :  3.00000e-05
 Reference value :  3.00002e-05
 Reference value :  3.00005e-05
 Reference value :  3.00006e-05
 Reference value :  3.00010e-05
 Reference value :  3.00019e-05
 Reference value :  3.00023e-05
 Reference value :  3.00032e-05
 Reference value :  3.00042e-05
 Reference value :  3.00056e-05
 Reference value :  3.00062e-05
 Reference value :  3.00076e-05
 Reference value :  3.00085e-05
 Reference value :  3.00093e-05
 Reference value :  3.00103e-05
 Reference value :  3.00135e-05
 Reference value :  3.00232e-05
 Reference value :  3.00556e-05
 Reference value :  3.01798e-05
 Reference value :  3.10005e-05
 Reference value :  3.10006e-05
 Reference value :  3.10010e-05
 Reference value :  3.10011e-05
 Reference value :  3.10012e-05
 Reference value :  3.10014e-05
 Reference value :  3.10017e-05
 Reference value :  3.10020e-05
 Reference value :  3.10029e-05
 Reference value :  3.10035e-05
 Reference value :  3.10046e-05
 Reference value :  3.10057e-05
 Reference value :  3.10072e-05
 Reference value :  3.10138e-05
 Reference value :  3.10304e-05
 Reference value :  3.10523e-05
 Reference value :  3.11798e-05
 Reference value :  3.16896e-05
 Reference value :  3.20000e-05
 Reference value :  3.20001e-05
 Reference value :  3.20003e-05
 Reference value :  3.20005e-05
 Reference value :  3.20006e-05
 Reference value :  3.20010e-05
 Reference value :  3.20015e-05
 Reference value :  3.20023e-05
 Reference value :  3.20032e-05
 Reference value :  3.20042e-05
 Reference value :  3.20051e-05
 Reference value :  3.20062e-05
 Reference value :  3.20069e-05
 Reference value :  3.20076e-05
 Reference value :  3.20083e-05
 Reference value :  3.20092e-05
 Reference value :  3.20121e-05
 Reference value :  3.20211e-05
 Reference value :  3.20862e-05
 Reference value :  3.22997e-05
 Reference value :  3.30005e-05
 Reference value :  3.30007e-05
 Reference value :  3.30010e-05
 Reference value :  3.30012e-05
 Reference value :  3.30017e-05
 Reference value :  3.30021e-05
 Reference value :  3.30029e-05
 Reference value :  3.30042e-05
 Reference value :  3.30059e-05
 Reference value :  3.30080e-05
 Reference value :  3.30157e-05
 Reference value :  3.30669e-05
 Reference value :  3.34765e-05
No. of Data Rows : 1272
ngspice-44 done
