
Note: Compatibility modes selected: hs a


Circuit: ** sch_path: /home/samantha/cace/sar-adc-using-sky130-pdk/runs/run_2025-09-02_14-30-26/parameters/sndr/run_0/sndr_enob_fom.sch

option SCALE: Scale is set to 1e-06 for instance and model parameters
option SCALE: Scale is set to 1e-06 for instance and model parameters
option SCALE: Scale is set to 1e-06 for instance and model parameters
option SCALE: Scale is set to 1e-06 for instance and model parameters
Doing analysis at TEMP = 27.000000 and TNOM = 27.000000

Using KLU as Direct Linear Solver
Operating point simulation skipped by 'uic',
  now using transient initial conditions.
 Reference value :  1.00000e-12
 Reference value :  1.02387e-12
 Reference value :  1.07160e-12
 Reference value :  1.14212e-12
 Reference value :  1.22026e-12
 Reference value :  1.35927e-12
 Reference value :  1.57508e-12
 Reference value :  1.90714e-12
 Reference value :  2.54099e-12
 Reference value :  3.47552e-12
 Reference value :  4.89851e-12
 Reference value :  6.43049e-12
 Reference value :  8.78272e-12
 Reference value :  1.27955e-11
 Reference value :  1.81626e-11
 Reference value :  2.51133e-11
 Reference value :  3.40603e-11
 Reference value :  4.41251e-11
 Reference value :  5.97356e-11
 Reference value :  7.73882e-11
 Reference value :  1.00000e-10
 Reference value :  1.00441e-10
 Reference value :  1.01324e-10
 Reference value :  1.03090e-10
 Reference value :  1.06597e-10
 Reference value :  1.13610e-10
 Reference value :  1.27635e-10
 Reference value :  1.55687e-10
 Reference value :  1.93179e-10
 Reference value :  2.42560e-10
 Reference value :  3.12299e-10
 Reference value :  4.44481e-10
 Reference value :  6.74787e-10
 Reference value :  9.74648e-10
 Reference value :  1.39864e-09
 Reference value :  1.93183e-09
 Reference value :  2.67761e-09
 Reference value :  3.58247e-09
 Reference value :  4.54479e-09
 Reference value :  5.30610e-09
 Reference value :  6.17418e-09
 Reference value :  7.00390e-09
 Reference value :  7.88645e-09
 Reference value :  8.92554e-09
 Reference value :  1.00194e-08
 Reference value :  1.11687e-08
 Reference value :  1.25285e-08
 Reference value :  1.39013e-08
 Reference value :  1.51888e-08
 Reference value :  1.65554e-08
 Reference value :  1.77974e-08
 Reference value :  1.91246e-08
 Reference value :  2.07390e-08
 Reference value :  2.22631e-08
 Reference value :  2.34292e-08
 Reference value :  2.49859e-08
 Reference value :  2.66085e-08
 Reference value :  2.92526e-08
 Reference value :  3.20413e-08
 Reference value :  3.63019e-08
 Reference value :  4.19515e-08
 Reference value :  5.32507e-08
 Reference value :  7.43934e-08
 Reference value :  1.03217e-07
 Reference value :  1.45809e-07
 Reference value :  2.23054e-07
 Reference value :  2.50100e-07
 Reference value :  2.50110e-07
 Reference value :  2.50130e-07
 Reference value :  2.50170e-07
 Reference value :  2.50200e-07
 Reference value :  2.50201e-07
 Reference value :  2.50202e-07
 Reference value :  2.50204e-07
 Reference value :  2.50208e-07
 Reference value :  2.50216e-07
 Reference value :  2.50232e-07
 Reference value :  2.50265e-07
 Reference value :  2.50331e-07
 Reference value :  2.50414e-07
 Reference value :  2.50579e-07
 Reference value :  2.50745e-07
 Reference value :  2.51077e-07
 Reference value :  2.51464e-07
 Reference value :  2.52139e-07
 Reference value :  2.52794e-07
 Reference value :  2.53525e-07
 Reference value :  2.54494e-07
 Reference value :  2.55497e-07
 Reference value :  2.56524e-07
 Reference value :  2.57712e-07
 Reference value :  2.58782e-07
 Reference value :  2.60121e-07
 Reference value :  2.61344e-07
 Reference value :  2.63001e-07
 Reference value :  2.65887e-07
 Reference value :  2.69835e-07
 Reference value :  2.77626e-07
 Reference value :  2.91265e-07
 Reference value :  3.14996e-07
 Reference value :  3.59680e-07
 Reference value :  4.37623e-07
 Reference value :  5.00000e-07
 Reference value :  5.00010e-07
 Reference value :  5.00030e-07
 Reference value :  5.00070e-07
 Reference value :  5.00100e-07
 Reference value :  5.00101e-07
 Reference value :  5.00102e-07
 Reference value :  5.00104e-07
 Reference value :  5.00108e-07
 Reference value :  5.00116e-07
 Reference value :  5.00133e-07
 Reference value :  5.00166e-07
 Reference value :  5.00232e-07
 Reference value :  5.00364e-07
 Reference value :  5.00562e-07
 Reference value :  5.00958e-07
 Reference value :  5.01468e-07
 Reference value :  5.02005e-07
 Reference value :  5.02765e-07
 Reference value :  5.03572e-07
 Reference value :  5.04320e-07
 Reference value :  5.05131e-07
 Reference value :  5.06130e-07
 Reference value :  5.07172e-07
 Reference value :  5.08392e-07
 Reference value :  5.09756e-07
 Reference value :  5.11601e-07
 Reference value :  5.13517e-07
 Reference value :  5.15468e-07
 Reference value :  5.17394e-07
 Reference value :  5.19740e-07
 Reference value :  5.23779e-07
 Reference value :  5.26843e-07
 Reference value :  5.30508e-07
 Reference value :  5.34274e-07
 Reference value :  5.38199e-07
 Reference value :  5.44478e-07
 Reference value :  5.50230e-07
 Reference value :  5.60113e-07
 Reference value :  5.73009e-07
 Reference value :  5.98799e-07
 Reference value :  6.49213e-07
 Reference value :  7.34114e-07
 Reference value :  7.50100e-07
 Reference value :  7.50110e-07
 Reference value :  7.50130e-07
 Reference value :  7.50170e-07
 Reference value :  7.50200e-07
 Reference value :  7.50201e-07
 Reference value :  7.50202e-07
 Reference value :  7.50204e-07
 Reference value :  7.50208e-07
 Reference value :  7.50216e-07
 Reference value :  7.50233e-07
 Reference value :  7.50266e-07
 Reference value :  7.50333e-07
 Reference value :  7.50467e-07
 Reference value :  7.50644e-07
 Reference value :  7.50914e-07
 Reference value :  7.51453e-07
 Reference value :  7.52099e-07
 Reference value :  7.52800e-07
 Reference value :  7.53529e-07
 Reference value :  7.54426e-07
 Reference value :  7.55524e-07
 Reference value :  7.56676e-07
 Reference value :  7.57702e-07
 Reference value :  7.58796e-07
 Reference value :  7.59790e-07
 Reference value :  7.60838e-07
 Reference value :  7.62071e-07
 Reference value :  7.63367e-07
 Reference value :  7.64935e-07
 Reference value :  7.66859e-07
 Reference value :  7.69489e-07
 Reference value :  7.72562e-07
 Reference value :  7.77449e-07
 Reference value :  7.87224e-07
 Reference value :  8.04386e-07
 Reference value :  8.36278e-07
 Reference value :  8.96007e-07
 Reference value :  1.00000e-06
 Reference value :  1.00001e-06
 Reference value :  1.00003e-06
 Reference value :  1.00007e-06
 Reference value :  1.00010e-06
 Reference value :  1.00010e-06
 Reference value :  1.00010e-06
 Reference value :  1.00010e-06
 Reference value :  1.00011e-06
 Reference value :  1.00012e-06
 Reference value :  1.00013e-06
 Reference value :  1.00017e-06
 Reference value :  1.00023e-06
 Reference value :  1.00036e-06
 Reference value :  1.00056e-06
 Reference value :  1.00096e-06
 Reference value :  1.00147e-06
 Reference value :  1.00201e-06
 Reference value :  1.00276e-06
 Reference value :  1.00346e-06
 Reference value :  1.00420e-06
 Reference value :  1.00499e-06
 Reference value :  1.00587e-06
 Reference value :  1.00691e-06
 Reference value :  1.00768e-06
 Reference value :  1.00855e-06
 Reference value :  1.00939e-06
 Reference value :  1.01026e-06
 Reference value :  1.01144e-06
 Reference value :  1.01269e-06
 Reference value :  1.01520e-06
 Reference value :  1.01755e-06
 Reference value :  1.01942e-06
 Reference value :  1.02149e-06
 Reference value :  1.02430e-06
 Reference value :  1.02655e-06
 Reference value :  1.02857e-06
 Reference value :  1.03009e-06
 Reference value :  1.03149e-06
 Reference value :  1.03302e-06
 Reference value :  1.03459e-06
 Reference value :  1.03636e-06
 Reference value :  1.03917e-06
 Reference value :  1.04208e-06
 Reference value :  1.04790e-06
 Reference value :  1.05662e-06
 Reference value :  1.07107e-06
 Reference value :  1.09838e-06
 Reference value :  1.14369e-06
 Reference value :  1.22251e-06
 Reference value :  1.25010e-06
 Reference value :  1.25011e-06
 Reference value :  1.25013e-06
 Reference value :  1.25017e-06
 Reference value :  1.25020e-06
 Reference value :  1.25020e-06
 Reference value :  1.25020e-06
 Reference value :  1.25020e-06
 Reference value :  1.25021e-06
 Reference value :  1.25022e-06
 Reference value :  1.25023e-06
 Reference value :  1.25027e-06
 Reference value :  1.25033e-06
 Reference value :  1.25047e-06
 Reference value :  1.25064e-06
 Reference value :  1.25091e-06
 Reference value :  1.25145e-06
 Reference value :  1.25210e-06
 Reference value :  1.25288e-06
 Reference value :  1.25358e-06
 Reference value :  1.25455e-06
 Reference value :  1.25561e-06
 Reference value :  1.25652e-06
 Reference value :  1.25760e-06
 Reference value :  1.25871e-06
 Reference value :  1.25986e-06
 Reference value :  1.26136e-06
 Reference value :  1.26388e-06
 Reference value :  1.26734e-06
 Reference value :  1.27243e-06
 Reference value :  1.28263e-06
 Reference value :  1.29879e-06
 Reference value :  1.33070e-06
 Reference value :  1.39450e-06
 Reference value :  1.50000e-06
 Reference value :  1.50001e-06
 Reference value :  1.50003e-06
 Reference value :  1.50007e-06
 Reference value :  1.50010e-06
 Reference value :  1.50010e-06
 Reference value :  1.50010e-06
 Reference value :  1.50010e-06
 Reference value :  1.50011e-06
 Reference value :  1.50012e-06
 Reference value :  1.50013e-06
 Reference value :  1.50017e-06
 Reference value :  1.50023e-06
 Reference value :  1.50036e-06
 Reference value :  1.50056e-06
 Reference value :  1.50095e-06
 Reference value :  1.50146e-06
 Reference value :  1.50200e-06
 Reference value :  1.50275e-06
 Reference value :  1.50344e-06
 Reference value :  1.50417e-06
 Reference value :  1.50501e-06
 Reference value :  1.50593e-06
 Reference value :  1.50690e-06
 Reference value :  1.50791e-06
 Reference value :  1.50963e-06
 Reference value :  1.51119e-06
 Reference value :  1.51316e-06
 Reference value :  1.51475e-06
 Reference value :  1.51645e-06
 Reference value :  1.51871e-06
 Reference value :  1.52104e-06
 Reference value :  1.52494e-06
 Reference value :  1.53011e-06
 Reference value :  1.53821e-06
 Reference value :  1.55111e-06
 Reference value :  1.57404e-06
 Reference value :  1.61741e-06
 Reference value :  1.69497e-06
 Reference value :  1.75010e-06
 Reference value :  1.75011e-06
 Reference value :  1.75013e-06
 Reference value :  1.75017e-06
 Reference value :  1.75020e-06
 Reference value :  1.75020e-06
 Reference value :  1.75020e-06
 Reference value :  1.75020e-06
 Reference value :  1.75021e-06
 Reference value :  1.75022e-06
 Reference value :  1.75023e-06
 Reference value :  1.75027e-06
 Reference value :  1.75033e-06
 Reference value :  1.75047e-06
 Reference value :  1.75064e-06
 Reference value :  1.75091e-06
 Reference value :  1.75145e-06
 Reference value :  1.75210e-06
 Reference value :  1.75288e-06
 Reference value :  1.75358e-06
 Reference value :  1.75454e-06
 Reference value :  1.75561e-06
 Reference value :  1.75653e-06
 Reference value :  1.75762e-06
 Reference value :  1.75853e-06
 Reference value :  1.75951e-06
 Reference value :  1.76064e-06
 Reference value :  1.76188e-06
 Reference value :  1.76337e-06
 Reference value :  1.76496e-06
 Reference value :  1.76739e-06
 Reference value :  1.77000e-06
 Reference value :  1.77435e-06
 Reference value :  1.78304e-06
 Reference value :  1.79603e-06
 Reference value :  1.82144e-06
 Reference value :  1.86422e-06
 Reference value :  1.93984e-06
 Reference value :  2.00000e-06
 Reference value :  2.00001e-06
 Reference value :  2.00003e-06
 Reference value :  2.00007e-06
 Reference value :  2.00010e-06
 Reference value :  2.00010e-06
 Reference value :  2.00010e-06
 Reference value :  2.00010e-06
 Reference value :  2.00011e-06
 Reference value :  2.00012e-06
 Reference value :  2.00013e-06
 Reference value :  2.00017e-06
 Reference value :  2.00023e-06
 Reference value :  2.00036e-06
 Reference value :  2.00056e-06
 Reference value :  2.00095e-06
 Reference value :  2.00146e-06
 Reference value :  2.00200e-06
 Reference value :  2.00275e-06
 Reference value :  2.00345e-06
 Reference value :  2.00418e-06
 Reference value :  2.00498e-06
 Reference value :  2.00586e-06
 Reference value :  2.00661e-06
 Reference value :  2.00746e-06
 Reference value :  2.00819e-06
 Reference value :  2.00904e-06
 Reference value :  2.01011e-06
 Reference value :  2.01122e-06
 Reference value :  2.01323e-06
 Reference value :  2.01537e-06
 Reference value :  2.01761e-06
 Reference value :  2.01983e-06
 Reference value :  2.02193e-06
 Reference value :  2.02420e-06
 Reference value :  2.02602e-06
 Reference value :  2.02745e-06
 Reference value :  2.02898e-06
 Reference value :  2.03072e-06
 Reference value :  2.03260e-06
 Reference value :  2.03465e-06
 Reference value :  2.03766e-06
 Reference value :  2.04137e-06
 Reference value :  2.04879e-06
 Reference value :  2.05862e-06
 Reference value :  2.07639e-06
 Reference value :  2.09902e-06
 Reference value :  2.14427e-06
 Reference value :  2.21153e-06
 Reference value :  2.25010e-06
 Reference value :  2.25011e-06
 Reference value :  2.25013e-06
 Reference value :  2.25017e-06
 Reference value :  2.25020e-06
 Reference value :  2.25020e-06
 Reference value :  2.25020e-06
 Reference value :  2.25020e-06
 Reference value :  2.25021e-06
 Reference value :  2.25022e-06
 Reference value :  2.25023e-06
 Reference value :  2.25027e-06
 Reference value :  2.25033e-06
 Reference value :  2.25047e-06
 Reference value :  2.25064e-06
 Reference value :  2.25091e-06
 Reference value :  2.25145e-06
 Reference value :  2.25210e-06
 Reference value :  2.25288e-06
 Reference value :  2.25358e-06
 Reference value :  2.25454e-06
 Reference value :  2.25561e-06
 Reference value :  2.25657e-06
 Reference value :  2.25771e-06
 Reference value :  2.25878e-06
 Reference value :  2.26033e-06
 Reference value :  2.26244e-06
 Reference value :  2.26495e-06
 Reference value :  2.26889e-06
 Reference value :  2.27529e-06
 Reference value :  2.28633e-06
 Reference value :  2.30434e-06
 Reference value :  2.34036e-06
 Reference value :  2.39742e-06
 Reference value :  2.46066e-06
 Reference value :  2.50000e-06
 Reference value :  2.50001e-06
 Reference value :  2.50003e-06
 Reference value :  2.50007e-06
 Reference value :  2.50010e-06
 Reference value :  2.50010e-06
 Reference value :  2.50010e-06
 Reference value :  2.50010e-06
 Reference value :  2.50011e-06
 Reference value :  2.50012e-06
 Reference value :  2.50013e-06
 Reference value :  2.50017e-06
 Reference value :  2.50023e-06
 Reference value :  2.50036e-06
 Reference value :  2.50055e-06
 Reference value :  2.50091e-06
 Reference value :  2.50141e-06
 Reference value :  2.50194e-06
 Reference value :  2.50259e-06
 Reference value :  2.50328e-06
 Reference value :  2.50395e-06
 Reference value :  2.50471e-06
 Reference value :  2.50557e-06
 Reference value :  2.50642e-06
 Reference value :  2.50765e-06
 Reference value :  2.50889e-06
 Reference value :  2.51091e-06
 Reference value :  2.51240e-06
 Reference value :  2.51392e-06
 Reference value :  2.51550e-06
 Reference value :  2.51724e-06
 Reference value :  2.51903e-06
 Reference value :  2.52259e-06
 Reference value :  2.52726e-06
 Reference value :  2.53604e-06
 Reference value :  2.55141e-06
 Reference value :  2.57945e-06
 Reference value :  2.63553e-06
 Reference value :  2.74768e-06
 Reference value :  2.75010e-06
 Reference value :  2.75011e-06
 Reference value :  2.75013e-06
 Reference value :  2.75017e-06
 Reference value :  2.75020e-06
 Reference value :  2.75020e-06
 Reference value :  2.75020e-06
 Reference value :  2.75020e-06
 Reference value :  2.75021e-06
 Reference value :  2.75022e-06
 Reference value :  2.75023e-06
 Reference value :  2.75027e-06
 Reference value :  2.75033e-06
 Reference value :  2.75047e-06
 Reference value :  2.75064e-06
 Reference value :  2.75091e-06
 Reference value :  2.75145e-06
 Reference value :  2.75210e-06
 Reference value :  2.75287e-06
 Reference value :  2.75358e-06
 Reference value :  2.75456e-06
 Reference value :  2.75562e-06
 Reference value :  2.75658e-06
 Reference value :  2.75747e-06
 Reference value :  2.75843e-06
 Reference value :  2.75958e-06
 Reference value :  2.76082e-06
 Reference value :  2.76219e-06
 Reference value :  2.76377e-06
 Reference value :  2.76611e-06
 Reference value :  2.76872e-06
 Reference value :  2.77303e-06
 Reference value :  2.78000e-06
 Reference value :  2.79393e-06
 Reference value :  2.81838e-06
 Reference value :  2.86415e-06
 Reference value :  2.94974e-06
 Reference value :  3.00000e-06
 Reference value :  3.00001e-06
 Reference value :  3.00003e-06
 Reference value :  3.00007e-06
 Reference value :  3.00010e-06
 Reference value :  3.00010e-06
 Reference value :  3.00010e-06
 Reference value :  3.00010e-06
 Reference value :  3.00011e-06
 Reference value :  3.00012e-06
 Reference value :  3.00013e-06
 Reference value :  3.00017e-06
 Reference value :  3.00023e-06
 Reference value :  3.00036e-06
 Reference value :  3.00055e-06
 Reference value :  3.00091e-06
 Reference value :  3.00141e-06
 Reference value :  3.00194e-06
 Reference value :  3.00269e-06
 Reference value :  3.00338e-06
 Reference value :  3.00409e-06
 Reference value :  3.00486e-06
 Reference value :  3.00572e-06
 Reference value :  3.00652e-06
 Reference value :  3.00735e-06
 Reference value :  3.00811e-06
 Reference value :  3.00895e-06
 Reference value :  3.01008e-06
 Reference value :  3.01115e-06
 Reference value :  3.01303e-06
 Reference value :  3.01515e-06
 Reference value :  3.01680e-06
 Reference value :  3.01863e-06
 Reference value :  3.02048e-06
 Reference value :  3.02249e-06
 Reference value :  3.02397e-06
 Reference value :  3.02540e-06
 Reference value :  3.02673e-06
 Reference value :  3.02818e-06
 Reference value :  3.02987e-06
 Reference value :  3.03174e-06
 Reference value :  3.03449e-06
 Reference value :  3.03796e-06
 Reference value :  3.04491e-06
 Reference value :  3.05589e-06
 Reference value :  3.07259e-06
 Reference value :  3.10391e-06
 Reference value :  3.15512e-06
 Reference value :  3.21238e-06
 Reference value :  3.25010e-06
 Reference value :  3.25011e-06
 Reference value :  3.25013e-06
 Reference value :  3.25017e-06
 Reference value :  3.25020e-06
 Reference value :  3.25020e-06
 Reference value :  3.25020e-06
 Reference value :  3.25020e-06
 Reference value :  3.25021e-06
 Reference value :  3.25022e-06
 Reference value :  3.25023e-06
 Reference value :  3.25027e-06
 Reference value :  3.25033e-06
 Reference value :  3.25047e-06
 Reference value :  3.25064e-06
 Reference value :  3.25091e-06
 Reference value :  3.25145e-06
 Reference value :  3.25210e-06
 Reference value :  3.25287e-06
 Reference value :  3.25358e-06
 Reference value :  3.25455e-06
 Reference value :  3.25561e-06
 Reference value :  3.25651e-06
 Reference value :  3.25749e-06
 Reference value :  3.25848e-06
 Reference value :  3.25990e-06
 Reference value :  3.26138e-06
 Reference value :  3.26403e-06
 Reference value :  3.26738e-06
 Reference value :  3.27276e-06
 Reference value :  3.28352e-06
 Reference value :  3.29975e-06
 Reference value :  3.33220e-06
 Reference value :  3.39710e-06
 Reference value :  3.50000e-06
 Reference value :  3.50001e-06
 Reference value :  3.50003e-06
 Reference value :  3.50007e-06
 Reference value :  3.50010e-06
 Reference value :  3.50010e-06
 Reference value :  3.50010e-06
 Reference value :  3.50010e-06
 Reference value :  3.50011e-06
 Reference value :  3.50012e-06
 Reference value :  3.50013e-06
 Reference value :  3.50017e-06
 Reference value :  3.50023e-06
 Reference value :  3.50036e-06
 Reference value :  3.50055e-06
 Reference value :  3.50091e-06
 Reference value :  3.50141e-06
 Reference value :  3.50194e-06
 Reference value :  3.50269e-06
 Reference value :  3.50338e-06
 Reference value :  3.50410e-06
 Reference value :  3.50490e-06
 Reference value :  3.50579e-06
 Reference value :  3.50677e-06
 Reference value :  3.50802e-06
 Reference value :  3.50965e-06
 Reference value :  3.51115e-06
 Reference value :  3.51289e-06
 Reference value :  3.51453e-06
 Reference value :  3.51641e-06
 Reference value :  3.51820e-06
 Reference value :  3.52051e-06
 Reference value :  3.52403e-06
 Reference value :  3.52930e-06
 Reference value :  3.53843e-06
 Reference value :  3.55519e-06
 Reference value :  3.58487e-06
 Reference value :  3.64161e-06
 Reference value :  3.75010e-06
 Reference value :  3.75011e-06
 Reference value :  3.75013e-06
 Reference value :  3.75017e-06
 Reference value :  3.75020e-06
 Reference value :  3.75020e-06
 Reference value :  3.75020e-06
 Reference value :  3.75020e-06
 Reference value :  3.75021e-06
 Reference value :  3.75022e-06
 Reference value :  3.75023e-06
 Reference value :  3.75027e-06
 Reference value :  3.75033e-06
 Reference value :  3.75047e-06
 Reference value :  3.75064e-06
 Reference value :  3.75091e-06
 Reference value :  3.75145e-06
 Reference value :  3.75211e-06
 Reference value :  3.75288e-06
 Reference value :  3.75358e-06
 Reference value :  3.75455e-06
 Reference value :  3.75561e-06
 Reference value :  3.75651e-06
 Reference value :  3.75749e-06
 Reference value :  3.75842e-06
 Reference value :  3.75945e-06
 Reference value :  3.76061e-06
 Reference value :  3.76199e-06
 Reference value :  3.76345e-06
 Reference value :  3.76593e-06
 Reference value :  3.76847e-06
 Reference value :  3.77208e-06
 Reference value :  3.77721e-06
 Reference value :  3.78747e-06
 Reference value :  3.80799e-06
 Reference value :  3.84903e-06
 Reference value :  3.93112e-06
 Reference value :  4.00000e-06
 Reference value :  4.00001e-06
 Reference value :  4.00003e-06
 Reference value :  4.00007e-06
 Reference value :  4.00010e-06
 Reference value :  4.00010e-06
 Reference value :  4.00010e-06
 Reference value :  4.00010e-06
 Reference value :  4.00011e-06
 Reference value :  4.00012e-06
 Reference value :  4.00013e-06
 Reference value :  4.00017e-06
 Reference value :  4.00023e-06
 Reference value :  4.00036e-06
 Reference value :  4.00055e-06
 Reference value :  4.00091e-06
 Reference value :  4.00141e-06
 Reference value :  4.00194e-06
 Reference value :  4.00269e-06
 Reference value :  4.00337e-06
 Reference value :  4.00409e-06
 Reference value :  4.00487e-06
 Reference value :  4.00575e-06
 Reference value :  4.00648e-06
 Reference value :  4.00727e-06
 Reference value :  4.00802e-06
 Reference value :  4.00888e-06
 Reference value :  4.00970e-06
 Reference value :  4.01095e-06
 Reference value :  4.01209e-06
 Reference value :  4.01418e-06
 Reference value :  4.01639e-06
 Reference value :  4.01810e-06
 Reference value :  4.01998e-06
 Reference value :  4.02247e-06
 Reference value :  4.02454e-06
 Reference value :  4.02612e-06
 Reference value :  4.02759e-06
 Reference value :  4.02919e-06
 Reference value :  4.03083e-06
 Reference value :  4.03271e-06
 Reference value :  4.03582e-06
 Reference value :  4.03887e-06
 Reference value :  4.04497e-06
 Reference value :  4.05433e-06
 Reference value :  4.07008e-06
 Reference value :  4.09436e-06
 Reference value :  4.12230e-06
 Reference value :  4.13628e-06
 Reference value :  4.15788e-06
 Reference value :  4.17773e-06
 Reference value :  4.19674e-06
 Reference value :  4.22188e-06
 Reference value :  4.25010e-06
 Reference value :  4.25011e-06
 Reference value :  4.25013e-06
 Reference value :  4.25017e-06
 Reference value :  4.25020e-06
 Reference value :  4.25020e-06
 Reference value :  4.25020e-06
 Reference value :  4.25020e-06
 Reference value :  4.25021e-06
 Reference value :  4.25022e-06
 Reference value :  4.25023e-06
 Reference value :  4.25027e-06
 Reference value :  4.25033e-06
 Reference value :  4.25042e-06
 Reference value :  4.25058e-06
 Reference value :  4.25077e-06
 Reference value :  4.25109e-06
 Reference value :  4.25172e-06
 Reference value :  4.25234e-06
 Reference value :  4.25304e-06
 Reference value :  4.25378e-06
 Reference value :  4.25472e-06
 Reference value :  4.25553e-06
 Reference value :  4.25646e-06
 Reference value :  4.25737e-06
 Reference value :  4.25832e-06
 Reference value :  4.25986e-06
 Reference value :  4.26142e-06
 Reference value :  4.26404e-06
 Reference value :  4.26739e-06
 Reference value :  4.27265e-06
 Reference value :  4.28318e-06
 Reference value :  4.30423e-06
 Reference value :  4.34633e-06
 Reference value :  4.43053e-06
 Reference value :  4.50000e-06
 Reference value :  4.50001e-06
 Reference value :  4.50003e-06
 Reference value :  4.50007e-06
 Reference value :  4.50010e-06
 Reference value :  4.50010e-06
 Reference value :  4.50010e-06
 Reference value :  4.50010e-06
 Reference value :  4.50011e-06
 Reference value :  4.50012e-06
 Reference value :  4.50013e-06
 Reference value :  4.50017e-06
 Reference value :  4.50023e-06
 Reference value :  4.50036e-06
 Reference value :  4.50062e-06
 Reference value :  4.50109e-06
 Reference value :  4.50174e-06
 Reference value :  4.50246e-06
 Reference value :  4.50308e-06
 Reference value :  4.50385e-06
 Reference value :  4.50481e-06
 Reference value :  4.50576e-06
 Reference value :  4.50670e-06
 Reference value :  4.50785e-06
 Reference value :  4.50928e-06
 Reference value :  4.51101e-06
 Reference value :  4.51234e-06
 Reference value :  4.51378e-06
 Reference value :  4.51521e-06
 Reference value :  4.51689e-06
 Reference value :  4.51866e-06
 Reference value :  4.52190e-06
 Reference value :  4.52661e-06
 Reference value :  4.53547e-06
 Reference value :  4.55228e-06
 Reference value :  4.58170e-06
 Reference value :  4.64054e-06
 Reference value :  4.75010e-06
 Reference value :  4.75011e-06
 Reference value :  4.75013e-06
 Reference value :  4.75017e-06
 Reference value :  4.75020e-06
 Reference value :  4.75020e-06
 Reference value :  4.75020e-06
 Reference value :  4.75020e-06
 Reference value :  4.75021e-06
 Reference value :  4.75022e-06
 Reference value :  4.75023e-06
 Reference value :  4.75027e-06
 Reference value :  4.75033e-06
 Reference value :  4.75042e-06
 Reference value :  4.75058e-06
 Reference value :  4.75077e-06
 Reference value :  4.75108e-06
 Reference value :  4.75171e-06
 Reference value :  4.75233e-06
 Reference value :  4.75303e-06
 Reference value :  4.75377e-06
 Reference value :  4.75471e-06
 Reference value :  4.75554e-06
 Reference value :  4.75647e-06
 Reference value :  4.75728e-06
 Reference value :  4.75818e-06
 Reference value :  4.75921e-06
 Reference value :  4.76036e-06
 Reference value :  4.76178e-06
 Reference value :  4.76326e-06
 Reference value :  4.76563e-06
 Reference value :  4.76814e-06
 Reference value :  4.77193e-06
 Reference value :  4.77714e-06
 Reference value :  4.78755e-06
 Reference value :  4.80838e-06
 Reference value :  4.85003e-06
 Reference value :  4.93334e-06
 Reference value :  5.00000e-06
 Reference value :  5.00001e-06
 Reference value :  5.00003e-06
 Reference value :  5.00007e-06
 Reference value :  5.00010e-06
 Reference value :  5.00010e-06
 Reference value :  5.00010e-06
 Reference value :  5.00010e-06
 Reference value :  5.00011e-06
 Reference value :  5.00012e-06
 Reference value :  5.00013e-06
 Reference value :  5.00017e-06
 Reference value :  5.00023e-06
 Reference value :  5.00036e-06
 Reference value :  5.00062e-06
 Reference value :  5.00109e-06
 Reference value :  5.00174e-06
 Reference value :  5.00246e-06
 Reference value :  5.00309e-06
 Reference value :  5.00386e-06
 Reference value :  5.00471e-06
 Reference value :  5.00560e-06
 Reference value :  5.00637e-06
 Reference value :  5.00718e-06
 Reference value :  5.00789e-06
 Reference value :  5.00869e-06
 Reference value :  5.00966e-06
 Reference value :  5.01075e-06
 Reference value :  5.01294e-06
 Reference value :  5.01511e-06
 Reference value :  5.01737e-06
 Reference value :  5.01946e-06
 Reference value :  5.02135e-06
 Reference value :  5.02340e-06
 Reference value :  5.02547e-06
 Reference value :  5.02717e-06
 Reference value :  5.02885e-06
 Reference value :  5.03038e-06
 Reference value :  5.03200e-06
 Reference value :  5.03388e-06
 Reference value :  5.03613e-06
 Reference value :  5.03905e-06
 Reference value :  5.04314e-06
 Reference value :  5.04789e-06
 Reference value :  5.05434e-06
 Reference value :  5.06076e-06
 Reference value :  5.06545e-06
 Reference value :  5.06987e-06
 Reference value :  5.07359e-06
 Reference value :  5.07819e-06
 Reference value :  5.08534e-06
 Reference value :  5.09340e-06
 Reference value :  5.10635e-06
 Reference value :  5.12477e-06
 Reference value :  5.15111e-06
 Reference value :  5.19167e-06
 Reference value :  5.25010e-06
 Reference value :  5.25011e-06
 Reference value :  5.25013e-06
 Reference value :  5.25017e-06
 Reference value :  5.25020e-06
 Reference value :  5.25020e-06
 Reference value :  5.25020e-06
 Reference value :  5.25020e-06
 Reference value :  5.25021e-06
 Reference value :  5.25022e-06
 Reference value :  5.25023e-06
 Reference value :  5.25027e-06
 Reference value :  5.25033e-06
 Reference value :  5.25042e-06
 Reference value :  5.25058e-06
 Reference value :  5.25076e-06
 Reference value :  5.25108e-06
 Reference value :  5.25172e-06
 Reference value :  5.25234e-06
 Reference value :  5.25305e-06
 Reference value :  5.25379e-06
 Reference value :  5.25473e-06
 Reference value :  5.25576e-06
 Reference value :  5.25652e-06
 Reference value :  5.25740e-06
 Reference value :  5.25837e-06
 Reference value :  5.25949e-06
 Reference value :  5.26069e-06
 Reference value :  5.26309e-06
 Reference value :  5.26620e-06
 Reference value :  5.27070e-06
 Reference value :  5.27928e-06
 Reference value :  5.29644e-06
 Reference value :  5.33076e-06
 Reference value :  5.39940e-06
 Reference value :  5.50000e-06
 Reference value :  5.50001e-06
 Reference value :  5.50003e-06
 Reference value :  5.50007e-06
 Reference value :  5.50010e-06
 Reference value :  5.50010e-06
 Reference value :  5.50010e-06
 Reference value :  5.50010e-06
 Reference value :  5.50011e-06
 Reference value :  5.50012e-06
 Reference value :  5.50013e-06
 Reference value :  5.50017e-06
 Reference value :  5.50023e-06
 Reference value :  5.50036e-06
 Reference value :  5.50059e-06
 Reference value :  5.50104e-06
 Reference value :  5.50167e-06
 Reference value :  5.50243e-06
 Reference value :  5.50310e-06
 Reference value :  5.50387e-06
 Reference value :  5.50481e-06
 Reference value :  5.50578e-06
 Reference value :  5.50672e-06
 Reference value :  5.50783e-06
 Reference value :  5.50920e-06
 Reference value :  5.51080e-06
 Reference value :  5.51223e-06
 Reference value :  5.51357e-06
 Reference value :  5.51504e-06
 Reference value :  5.51669e-06
 Reference value :  5.51839e-06
 Reference value :  5.52179e-06
 Reference value :  5.52670e-06
 Reference value :  5.53644e-06
 Reference value :  5.55487e-06
 Reference value :  5.58831e-06
 Reference value :  5.65519e-06
 Reference value :  5.75010e-06
 Reference value :  5.75011e-06
 Reference value :  5.75013e-06
 Reference value :  5.75017e-06
 Reference value :  5.75020e-06
 Reference value :  5.75020e-06
 Reference value :  5.75020e-06
 Reference value :  5.75020e-06
 Reference value :  5.75021e-06
 Reference value :  5.75022e-06
 Reference value :  5.75023e-06
 Reference value :  5.75027e-06
 Reference value :  5.75033e-06
 Reference value :  5.75041e-06
 Reference value :  5.75058e-06
 Reference value :  5.75077e-06
 Reference value :  5.75108e-06
 Reference value :  5.75170e-06
 Reference value :  5.75233e-06
 Reference value :  5.75303e-06
 Reference value :  5.75376e-06
 Reference value :  5.75470e-06
 Reference value :  5.75573e-06
 Reference value :  5.75649e-06
 Reference value :  5.75737e-06
 Reference value :  5.75837e-06
 Reference value :  5.75928e-06
 Reference value :  5.76068e-06
 Reference value :  5.76211e-06
 Reference value :  5.76498e-06
 Reference value :  5.76875e-06
 Reference value :  5.77631e-06
 Reference value :  5.79142e-06
 Reference value :  5.82165e-06
 Reference value :  5.88210e-06
 Reference value :  6.00000e-06
 Reference value :  6.00001e-06
 Reference value :  6.00003e-06
 Reference value :  6.00007e-06
 Reference value :  6.00010e-06
 Reference value :  6.00010e-06
 Reference value :  6.00010e-06
 Reference value :  6.00010e-06
 Reference value :  6.00011e-06
 Reference value :  6.00012e-06
 Reference value :  6.00013e-06
 Reference value :  6.00017e-06
 Reference value :  6.00023e-06
 Reference value :  6.00036e-06
 Reference value :  6.00059e-06
 Reference value :  6.00104e-06
 Reference value :  6.00166e-06
 Reference value :  6.00243e-06
 Reference value :  6.00310e-06
 Reference value :  6.00387e-06
 Reference value :  6.00482e-06
 Reference value :  6.00573e-06
 Reference value :  6.00667e-06
 Reference value :  6.00759e-06
 Reference value :  6.00861e-06
 Reference value :  6.00964e-06
 Reference value :  6.01087e-06
 Reference value :  6.01273e-06
 Reference value :  6.01503e-06
 Reference value :  6.01938e-06
 Reference value :  6.02380e-06
 Reference value :  6.02708e-06
 Reference value :  6.02982e-06
 Reference value :  6.03239e-06
 Reference value :  6.03510e-06
 Reference value :  6.03781e-06
 Reference value :  6.04108e-06
 Reference value :  6.04430e-06
 Reference value :  6.05028e-06
 Reference value :  6.05680e-06
 Reference value :  6.06726e-06
 Reference value :  6.08197e-06
 Reference value :  6.10244e-06
 Reference value :  6.13201e-06
 Reference value :  6.18051e-06
 Reference value :  6.24919e-06
 Reference value :  6.25010e-06
 Reference value :  6.25011e-06
 Reference value :  6.25013e-06
 Reference value :  6.25017e-06
 Reference value :  6.25020e-06
 Reference value :  6.25020e-06
 Reference value :  6.25020e-06
 Reference value :  6.25020e-06
 Reference value :  6.25021e-06
 Reference value :  6.25022e-06
 Reference value :  6.25023e-06
 Reference value :  6.25027e-06
 Reference value :  6.25033e-06
 Reference value :  6.25041e-06
 Reference value :  6.25058e-06
 Reference value :  6.25076e-06
 Reference value :  6.25106e-06
 Reference value :  6.25165e-06
 Reference value :  6.25229e-06
 Reference value :  6.25299e-06
 Reference value :  6.25371e-06
 Reference value :  6.25463e-06
 Reference value :  6.25565e-06
 Reference value :  6.25691e-06
 Reference value :  6.25795e-06
 Reference value :  6.25904e-06
 Reference value :  6.26022e-06
 Reference value :  6.26205e-06
 Reference value :  6.26382e-06
 Reference value :  6.26736e-06
 Reference value :  6.27247e-06
 Reference value :  6.28135e-06
 Reference value :  6.29824e-06
 Reference value :  6.33145e-06
 Reference value :  6.39788e-06
 Reference value :  6.50000e-06
 Reference value :  6.50001e-06
 Reference value :  6.50003e-06
 Reference value :  6.50007e-06
 Reference value :  6.50010e-06
 Reference value :  6.50010e-06
 Reference value :  6.50010e-06
 Reference value :  6.50010e-06
 Reference value :  6.50011e-06
 Reference value :  6.50012e-06
 Reference value :  6.50013e-06
 Reference value :  6.50017e-06
 Reference value :  6.50023e-06
 Reference value :  6.50036e-06
 Reference value :  6.50062e-06
 Reference value :  6.50109e-06
 Reference value :  6.50174e-06
 Reference value :  6.50246e-06
 Reference value :  6.50308e-06
 Reference value :  6.50385e-06
 Reference value :  6.50480e-06
 Reference value :  6.50576e-06
 Reference value :  6.50669e-06
 Reference value :  6.50778e-06
 Reference value :  6.50892e-06
 Reference value :  6.51063e-06
 Reference value :  6.51243e-06
 Reference value :  6.51382e-06
 Reference value :  6.51541e-06
 Reference value :  6.51708e-06
 Reference value :  6.51895e-06
 Reference value :  6.52245e-06
 Reference value :  6.52720e-06
 Reference value :  6.53664e-06
 Reference value :  6.55292e-06
 Reference value :  6.58546e-06
 Reference value :  6.64922e-06
 Reference value :  6.75010e-06
 Reference value :  6.75011e-06
 Reference value :  6.75013e-06
 Reference value :  6.75017e-06
 Reference value :  6.75020e-06
 Reference value :  6.75020e-06
 Reference value :  6.75020e-06
 Reference value :  6.75020e-06
 Reference value :  6.75021e-06
 Reference value :  6.75022e-06
 Reference value :  6.75023e-06
 Reference value :  6.75027e-06
 Reference value :  6.75033e-06
 Reference value :  6.75041e-06
 Reference value :  6.75058e-06
 Reference value :  6.75080e-06
 Reference value :  6.75107e-06
 Reference value :  6.75163e-06
 Reference value :  6.75225e-06
 Reference value :  6.75292e-06
 Reference value :  6.75364e-06
 Reference value :  6.75457e-06
 Reference value :  6.75558e-06
 Reference value :  6.75681e-06
 Reference value :  6.75779e-06
 Reference value :  6.75883e-06
 Reference value :  6.75987e-06
 Reference value :  6.76094e-06
 Reference value :  6.76216e-06
 Reference value :  6.76461e-06
 Reference value :  6.76913e-06
 Reference value :  6.77591e-06
 Reference value :  6.78947e-06
 Reference value :  6.81659e-06
 Reference value :  6.87082e-06
 Reference value :  6.97929e-06
 Reference value :  7.00000e-06
 Reference value :  7.00001e-06
 Reference value :  7.00003e-06
 Reference value :  7.00007e-06
 Reference value :  7.00010e-06
 Reference value :  7.00010e-06
 Reference value :  7.00010e-06
 Reference value :  7.00010e-06
 Reference value :  7.00011e-06
 Reference value :  7.00012e-06
 Reference value :  7.00013e-06
 Reference value :  7.00017e-06
 Reference value :  7.00023e-06
 Reference value :  7.00036e-06
 Reference value :  7.00062e-06
 Reference value :  7.00109e-06
 Reference value :  7.00174e-06
 Reference value :  7.00246e-06
 Reference value :  7.00308e-06
 Reference value :  7.00385e-06
 Reference value :  7.00481e-06
 Reference value :  7.00571e-06
 Reference value :  7.00665e-06
 Reference value :  7.00742e-06
 Reference value :  7.00831e-06
 Reference value :  7.00920e-06
 Reference value :  7.01039e-06
 Reference value :  7.01181e-06
 Reference value :  7.01452e-06
 Reference value :  7.01733e-06
 Reference value :  7.02076e-06
 Reference value :  7.02368e-06
 Reference value :  7.02673e-06
 Reference value :  7.02897e-06
 Reference value :  7.03107e-06
 Reference value :  7.03302e-06
 Reference value :  7.03511e-06
 Reference value :  7.03754e-06
 Reference value :  7.04082e-06
 Reference value :  7.04518e-06
 Reference value :  7.05215e-06
 Reference value :  7.06350e-06
 Reference value :  7.07790e-06
 Reference value :  7.10559e-06
 Reference value :  7.14516e-06
 Reference value :  7.22387e-06
 Reference value :  7.25010e-06
 Reference value :  7.25011e-06
 Reference value :  7.25013e-06
 Reference value :  7.25017e-06
 Reference value :  7.25020e-06
 Reference value :  7.25020e-06
 Reference value :  7.25020e-06
 Reference value :  7.25020e-06
 Reference value :  7.25021e-06
 Reference value :  7.25022e-06
 Reference value :  7.25023e-06
 Reference value :  7.25027e-06
 Reference value :  7.25033e-06
 Reference value :  7.25042e-06
 Reference value :  7.25059e-06
 Reference value :  7.25077e-06
 Reference value :  7.25107e-06
 Reference value :  7.25167e-06
 Reference value :  7.25229e-06
 Reference value :  7.25299e-06
 Reference value :  7.25372e-06
 Reference value :  7.25465e-06
 Reference value :  7.25566e-06
 Reference value :  7.25661e-06
 Reference value :  7.25783e-06
 Reference value :  7.25894e-06
 Reference value :  7.26015e-06
 Reference value :  7.26190e-06
 Reference value :  7.26418e-06
 Reference value :  7.26813e-06
 Reference value :  7.27391e-06
 Reference value :  7.28549e-06
 Reference value :  7.30653e-06
 Reference value :  7.34315e-06
 Reference value :  7.39596e-06
 Reference value :  7.45372e-06
 Reference value :  7.49161e-06
 Reference value :  7.50000e-06
 Reference value :  7.50001e-06
 Reference value :  7.50003e-06
 Reference value :  7.50007e-06
 Reference value :  7.50010e-06
 Reference value :  7.50010e-06
 Reference value :  7.50010e-06
 Reference value :  7.50010e-06
 Reference value :  7.50011e-06
 Reference value :  7.50012e-06
 Reference value :  7.50013e-06
 Reference value :  7.50017e-06
 Reference value :  7.50023e-06
 Reference value :  7.50036e-06
 Reference value :  7.50062e-06
 Reference value :  7.50109e-06
 Reference value :  7.50171e-06
 Reference value :  7.50245e-06
 Reference value :  7.50308e-06
 Reference value :  7.50385e-06
 Reference value :  7.50475e-06
 Reference value :  7.50573e-06
 Reference value :  7.50663e-06
 Reference value :  7.50781e-06
 Reference value :  7.50902e-06
 Reference value :  7.51079e-06
 Reference value :  7.51289e-06
 Reference value :  7.51462e-06
 Reference value :  7.51640e-06
 Reference value :  7.51867e-06
 Reference value :  7.52098e-06
 Reference value :  7.52491e-06
 Reference value :  7.53032e-06
 Reference value :  7.53933e-06
 Reference value :  7.55385e-06
 Reference value :  7.57930e-06
 Reference value :  7.62419e-06
 Reference value :  7.71123e-06
 Reference value :  7.75010e-06
 Reference value :  7.75011e-06
 Reference value :  7.75013e-06
 Reference value :  7.75017e-06
 Reference value :  7.75020e-06
 Reference value :  7.75020e-06
 Reference value :  7.75020e-06
 Reference value :  7.75020e-06
 Reference value :  7.75021e-06
 Reference value :  7.75022e-06
 Reference value :  7.75023e-06
 Reference value :  7.75027e-06
 Reference value :  7.75033e-06
 Reference value :  7.75042e-06
 Reference value :  7.75059e-06
 Reference value :  7.75082e-06
 Reference value :  7.75109e-06
 Reference value :  7.75165e-06
 Reference value :  7.75226e-06
 Reference value :  7.75292e-06
 Reference value :  7.75365e-06
 Reference value :  7.75457e-06
 Reference value :  7.75558e-06
 Reference value :  7.75656e-06
 Reference value :  7.75761e-06
 Reference value :  7.75856e-06
 Reference value :  7.75955e-06
 Reference value :  7.76067e-06
 Reference value :  7.76190e-06
 Reference value :  7.76327e-06
 Reference value :  7.76481e-06
 Reference value :  7.76718e-06
 Reference value :  7.76980e-06
 Reference value :  7.77409e-06
 Reference value :  7.78100e-06
 Reference value :  7.79367e-06
 Reference value :  7.81467e-06
 Reference value :  7.85204e-06
 Reference value :  7.92679e-06
 Reference value :  8.00000e-06
 Reference value :  8.00001e-06
 Reference value :  8.00003e-06
 Reference value :  8.00007e-06
 Reference value :  8.00010e-06
 Reference value :  8.00010e-06
 Reference value :  8.00010e-06
 Reference value :  8.00010e-06
 Reference value :  8.00011e-06
 Reference value :  8.00012e-06
 Reference value :  8.00013e-06
 Reference value :  8.00017e-06
 Reference value :  8.00023e-06
 Reference value :  8.00036e-06
 Reference value :  8.00062e-06
 Reference value :  8.00109e-06
 Reference value :  8.00171e-06
 Reference value :  8.00245e-06
 Reference value :  8.00308e-06
 Reference value :  8.00385e-06
 Reference value :  8.00482e-06
 Reference value :  8.00575e-06
 Reference value :  8.00670e-06
 Reference value :  8.00747e-06
 Reference value :  8.00833e-06
 Reference value :  8.00928e-06
 Reference value :  8.01018e-06
 Reference value :  8.01173e-06
 Reference value :  8.01317e-06
 Reference value :  8.01455e-06
 Reference value :  8.01608e-06
 Reference value :  8.01730e-06
 Reference value :  8.01872e-06
 Reference value :  8.02028e-06
 Reference value :  8.02204e-06
 Reference value :  8.02337e-06
 Reference value :  8.02436e-06
 Reference value :  8.02567e-06
 Reference value :  8.02754e-06
 Reference value :  8.03053e-06
 Reference value :  8.03534e-06
 Reference value :  8.04406e-06
 Reference value :  8.05382e-06
 Reference value :  8.07117e-06
 Reference value :  8.08777e-06
 Reference value :  8.10439e-06
 Reference value :  8.11941e-06
 Reference value :  8.13519e-06
 Reference value :  8.15211e-06
 Reference value :  8.17077e-06
 Reference value :  8.19200e-06
 Reference value :  8.23447e-06
 Reference value :  8.25010e-06
 Reference value :  8.25011e-06
 Reference value :  8.25013e-06
 Reference value :  8.25017e-06
 Reference value :  8.25020e-06
 Reference value :  8.25020e-06
 Reference value :  8.25020e-06
 Reference value :  8.25020e-06
 Reference value :  8.25021e-06
 Reference value :  8.25022e-06
 Reference value :  8.25023e-06
 Reference value :  8.25027e-06
 Reference value :  8.25033e-06
 Reference value :  8.25047e-06
 Reference value :  8.25064e-06
 Reference value :  8.25085e-06
 Reference value :  8.25127e-06
 Reference value :  8.25193e-06
 Reference value :  8.25261e-06
 Reference value :  8.25331e-06
 Reference value :  8.25422e-06
 Reference value :  8.25545e-06
 Reference value :  8.25660e-06
 Reference value :  8.25789e-06
 Reference value :  8.25953e-06
 Reference value :  8.26158e-06
 Reference value :  8.26424e-06
 Reference value :  8.26764e-06
 Reference value :  8.27257e-06
 Reference value :  8.28242e-06
 Reference value :  8.29630e-06
 Reference value :  8.32408e-06
 Reference value :  8.37963e-06
 Reference value :  8.48325e-06
 Reference value :  8.50000e-06
 Reference value :  8.50001e-06
 Reference value :  8.50003e-06
 Reference value :  8.50007e-06
 Reference value :  8.50010e-06
 Reference value :  8.50010e-06
 Reference value :  8.50010e-06
 Reference value :  8.50010e-06
 Reference value :  8.50011e-06
 Reference value :  8.50012e-06
 Reference value :  8.50013e-06
 Reference value :  8.50017e-06
 Reference value :  8.50023e-06
 Reference value :  8.50036e-06
 Reference value :  8.50062e-06
 Reference value :  8.50107e-06
 Reference value :  8.50173e-06
 Reference value :  8.50252e-06
 Reference value :  8.50322e-06
 Reference value :  8.50397e-06
 Reference value :  8.50474e-06
 Reference value :  8.50560e-06
 Reference value :  8.50654e-06
 Reference value :  8.50786e-06
 Reference value :  8.50877e-06
 Reference value :  8.50982e-06
 Reference value :  8.51109e-06
 Reference value :  8.51246e-06
 Reference value :  8.51519e-06
 Reference value :  8.51832e-06
 Reference value :  8.52458e-06
 Reference value :  8.53634e-06
 Reference value :  8.54574e-06
 Reference value :  8.55505e-06
 Reference value :  8.56146e-06
 Reference value :  8.56555e-06
 Reference value :  8.56917e-06
 Reference value :  8.57223e-06
 Reference value :  8.57432e-06
 Reference value :  8.57674e-06
 Reference value :  8.57954e-06
 Reference value :  8.58290e-06
 Reference value :  8.58732e-06
 Reference value :  8.59172e-06
 Reference value :  8.59728e-06
 Reference value :  8.60221e-06
 Reference value :  8.60683e-06
 Reference value :  8.61033e-06
 Reference value :  8.61418e-06
 Reference value :  8.61913e-06
 Reference value :  8.62674e-06
 Reference value :  8.63376e-06
 Reference value :  8.64025e-06
 Reference value :  8.64874e-06
 Reference value :  8.65925e-06
 Reference value :  8.67865e-06
 Reference value :  8.71354e-06
 Reference value :  8.75010e-06
 Reference value :  8.75011e-06
 Reference value :  8.75013e-06
 Reference value :  8.75017e-06
 Reference value :  8.75020e-06
 Reference value :  8.75020e-06
 Reference value :  8.75020e-06
 Reference value :  8.75020e-06
 Reference value :  8.75021e-06
 Reference value :  8.75022e-06
 Reference value :  8.75023e-06
 Reference value :  8.75027e-06
 Reference value :  8.75033e-06
 Reference value :  8.75047e-06
 Reference value :  8.75064e-06
 Reference value :  8.75091e-06
 Reference value :  8.75145e-06
 Reference value :  8.75211e-06
 Reference value :  8.75281e-06
 Reference value :  8.75354e-06
 Reference value :  8.75447e-06
 Reference value :  8.75552e-06
 Reference value :  8.75660e-06
 Reference value :  8.75758e-06
 Reference value :  8.75864e-06
 Reference value :  8.75991e-06
 Reference value :  8.76113e-06
 Reference value :  8.76255e-06
 Reference value :  8.76539e-06
 Reference value :  8.76927e-06
 Reference value :  8.77631e-06
 Reference value :  8.78761e-06
 Reference value :  8.80637e-06
 Reference value :  8.83860e-06
 Reference value :  8.89627e-06
 Reference value :  9.00000e-06
 Reference value :  9.00001e-06
 Reference value :  9.00003e-06
 Reference value :  9.00007e-06
 Reference value :  9.00010e-06
 Reference value :  9.00010e-06
 Reference value :  9.00010e-06
 Reference value :  9.00010e-06
 Reference value :  9.00011e-06
 Reference value :  9.00012e-06
 Reference value :  9.00013e-06
 Reference value :  9.00017e-06
 Reference value :  9.00023e-06
 Reference value :  9.00036e-06
 Reference value :  9.00056e-06
 Reference value :  9.00096e-06
 Reference value :  9.00147e-06
 Reference value :  9.00201e-06
 Reference value :  9.00277e-06
 Reference value :  9.00357e-06
 Reference value :  9.00432e-06
 Reference value :  9.00513e-06
 Reference value :  9.00613e-06
 Reference value :  9.00715e-06
 Reference value :  9.00840e-06
 Reference value :  9.00977e-06
 Reference value :  9.01140e-06
 Reference value :  9.01323e-06
 Reference value :  9.01489e-06
 Reference value :  9.01662e-06
 Reference value :  9.01903e-06
 Reference value :  9.02149e-06
 Reference value :  9.02482e-06
 Reference value :  9.02738e-06
 Reference value :  9.03021e-06
 Reference value :  9.03383e-06
 Reference value :  9.03764e-06
 Reference value :  9.04358e-06
 Reference value :  9.04942e-06
 Reference value :  9.05867e-06
 Reference value :  9.07112e-06
 Reference value :  9.09604e-06
 Reference value :  9.14572e-06
 Reference value :  9.23008e-06
 Reference value :  9.25010e-06
 Reference value :  9.25011e-06
 Reference value :  9.25013e-06
 Reference value :  9.25017e-06
 Reference value :  9.25020e-06
 Reference value :  9.25020e-06
 Reference value :  9.25020e-06
 Reference value :  9.25020e-06
 Reference value :  9.25021e-06
 Reference value :  9.25022e-06
 Reference value :  9.25023e-06
 Reference value :  9.25027e-06
 Reference value :  9.25033e-06
 Reference value :  9.25047e-06
 Reference value :  9.25064e-06
 Reference value :  9.25091e-06
 Reference value :  9.25145e-06
 Reference value :  9.25210e-06
 Reference value :  9.25280e-06
 Reference value :  9.25353e-06
 Reference value :  9.25443e-06
 Reference value :  9.25552e-06
 Reference value :  9.25665e-06
 Reference value :  9.25768e-06
 Reference value :  9.25876e-06
 Reference value :  9.25977e-06
 Reference value :  9.26083e-06
 Reference value :  9.26196e-06
 Reference value :  9.26318e-06
 Reference value :  9.26481e-06
 Reference value :  9.26634e-06
 Reference value :  9.26890e-06
 Reference value :  9.27159e-06
 Reference value :  9.27601e-06
 Reference value :  9.28302e-06
 Reference value :  9.29294e-06
 Reference value :  9.30953e-06
 Reference value :  9.33415e-06
 Reference value :  9.37506e-06
 Reference value :  9.45688e-06
 Reference value :  9.50000e-06
 Reference value :  9.50001e-06
 Reference value :  9.50003e-06
 Reference value :  9.50007e-06
 Reference value :  9.50010e-06
 Reference value :  9.50010e-06
 Reference value :  9.50010e-06
 Reference value :  9.50010e-06
 Reference value :  9.50011e-06
 Reference value :  9.50012e-06
 Reference value :  9.50013e-06
 Reference value :  9.50017e-06
 Reference value :  9.50023e-06
 Reference value :  9.50036e-06
 Reference value :  9.50056e-06
 Reference value :  9.50096e-06
 Reference value :  9.50147e-06
 Reference value :  9.50201e-06
 Reference value :  9.50276e-06
 Reference value :  9.50346e-06
 Reference value :  9.50420e-06
 Reference value :  9.50499e-06
 Reference value :  9.50588e-06
 Reference value :  9.50691e-06
 Reference value :  9.50768e-06
 Reference value :  9.50855e-06
 Reference value :  9.50939e-06
 Reference value :  9.51026e-06
 Reference value :  9.51144e-06
 Reference value :  9.51269e-06
 Reference value :  9.51520e-06
 Reference value :  9.51755e-06
 Reference value :  9.51942e-06
 Reference value :  9.52149e-06
 Reference value :  9.52429e-06
 Reference value :  9.52653e-06
 Reference value :  9.52857e-06
 Reference value :  9.53009e-06
 Reference value :  9.53150e-06
 Reference value :  9.53303e-06
 Reference value :  9.53460e-06
 Reference value :  9.53636e-06
 Reference value :  9.53914e-06
 Reference value :  9.54204e-06
 Reference value :  9.54783e-06
 Reference value :  9.55644e-06
 Reference value :  9.57074e-06
 Reference value :  9.59730e-06
 Reference value :  9.64250e-06
 Reference value :  9.72108e-06
 Reference value :  9.75010e-06
 Reference value :  9.75011e-06
 Reference value :  9.75013e-06
 Reference value :  9.75017e-06
 Reference value :  9.75020e-06
 Reference value :  9.75020e-06
 Reference value :  9.75020e-06
 Reference value :  9.75020e-06
 Reference value :  9.75021e-06
 Reference value :  9.75022e-06
 Reference value :  9.75023e-06
 Reference value :  9.75027e-06
 Reference value :  9.75033e-06
 Reference value :  9.75047e-06
 Reference value :  9.75064e-06
 Reference value :  9.75091e-06
 Reference value :  9.75145e-06
 Reference value :  9.75210e-06
 Reference value :  9.75288e-06
 Reference value :  9.75358e-06
 Reference value :  9.75455e-06
 Reference value :  9.75561e-06
 Reference value :  9.75652e-06
 Reference value :  9.75760e-06
 Reference value :  9.75871e-06
 Reference value :  9.75986e-06
 Reference value :  9.76136e-06
 Reference value :  9.76388e-06
 Reference value :  9.76733e-06
 Reference value :  9.77243e-06
 Reference value :  9.78263e-06
 Reference value :  9.79799e-06
 Reference value :  9.82678e-06
 Reference value :  9.88436e-06
 Reference value :  9.99951e-06
 Reference value :  1.00000e-05
 Reference value :  1.00000e-05
 Reference value :  1.00000e-05
 Reference value :  1.00000e-05
 Reference value :  1.00001e-05
 Reference value :  1.00001e-05
 Reference value :  1.00001e-05
 Reference value :  1.00001e-05
 Reference value :  1.00001e-05
 Reference value :  1.00001e-05
 Reference value :  1.00001e-05
 Reference value :  1.00002e-05
 Reference value :  1.00003e-05
 Reference value :  1.00005e-05
 Reference value :  1.00008e-05
 Reference value :  1.00013e-05
 Reference value :  1.00018e-05
 Reference value :  1.00026e-05
 Reference value :  1.00033e-05
 Reference value :  1.00040e-05
 Reference value :  1.00048e-05
 Reference value :  1.00058e-05
 Reference value :  1.00067e-05
 Reference value :  1.00077e-05
 Reference value :  1.00091e-05
 Reference value :  1.00107e-05
 Reference value :  1.00129e-05
 Reference value :  1.00144e-05
 Reference value :  1.00161e-05
 Reference value :  1.00180e-05
 Reference value :  1.00200e-05
 Reference value :  1.00236e-05
 Reference value :  1.00286e-05
 Reference value :  1.00373e-05
 Reference value :  1.00524e-05
 Reference value :  1.00779e-05
 Reference value :  1.01247e-05
 Reference value :  1.02062e-05
 Reference value :  1.02501e-05
 Reference value :  1.02501e-05
 Reference value :  1.02501e-05
 Reference value :  1.02502e-05
 Reference value :  1.02502e-05
 Reference value :  1.02502e-05
 Reference value :  1.02502e-05
 Reference value :  1.02502e-05
 Reference value :  1.02502e-05
 Reference value :  1.02502e-05
 Reference value :  1.02502e-05
 Reference value :  1.02503e-05
 Reference value :  1.02503e-05
 Reference value :  1.02505e-05
 Reference value :  1.02506e-05
 Reference value :  1.02509e-05
 Reference value :  1.02515e-05
 Reference value :  1.02521e-05
 Reference value :  1.02529e-05
 Reference value :  1.02536e-05
 Reference value :  1.02546e-05
 Reference value :  1.02556e-05
 Reference value :  1.02565e-05
 Reference value :  1.02576e-05
 Reference value :  1.02585e-05
 Reference value :  1.02595e-05
 Reference value :  1.02606e-05
 Reference value :  1.02619e-05
 Reference value :  1.02634e-05
 Reference value :  1.02649e-05
 Reference value :  1.02674e-05
 Reference value :  1.02700e-05
 Reference value :  1.02743e-05
 Reference value :  1.02830e-05
 Reference value :  1.02959e-05
 Reference value :  1.03213e-05
 Reference value :  1.03641e-05
 Reference value :  1.04397e-05
 Reference value :  1.05000e-05
 Reference value :  1.05000e-05
 Reference value :  1.05000e-05
 Reference value :  1.05001e-05
 Reference value :  1.05001e-05
 Reference value :  1.05001e-05
 Reference value :  1.05001e-05
 Reference value :  1.05001e-05
 Reference value :  1.05001e-05
 Reference value :  1.05001e-05
 Reference value :  1.05001e-05
 Reference value :  1.05002e-05
 Reference value :  1.05002e-05
 Reference value :  1.05004e-05
 Reference value :  1.05006e-05
 Reference value :  1.05010e-05
 Reference value :  1.05015e-05
 Reference value :  1.05020e-05
 Reference value :  1.05027e-05
 Reference value :  1.05034e-05
 Reference value :  1.05042e-05
 Reference value :  1.05050e-05
 Reference value :  1.05059e-05
 Reference value :  1.05066e-05
 Reference value :  1.05075e-05
 Reference value :  1.05082e-05
 Reference value :  1.05090e-05
 Reference value :  1.05101e-05
 Reference value :  1.05112e-05
 Reference value :  1.05132e-05
 Reference value :  1.05154e-05
 Reference value :  1.05176e-05
 Reference value :  1.05198e-05
 Reference value :  1.05219e-05
 Reference value :  1.05242e-05
 Reference value :  1.05260e-05
 Reference value :  1.05274e-05
 Reference value :  1.05290e-05
 Reference value :  1.05307e-05
 Reference value :  1.05326e-05
 Reference value :  1.05346e-05
 Reference value :  1.05376e-05
 Reference value :  1.05413e-05
 Reference value :  1.05486e-05
 Reference value :  1.05584e-05
 Reference value :  1.05761e-05
 Reference value :  1.05985e-05
 Reference value :  1.06433e-05
 Reference value :  1.07099e-05
 Reference value :  1.07501e-05
 Reference value :  1.07501e-05
 Reference value :  1.07501e-05
 Reference value :  1.07502e-05
 Reference value :  1.07502e-05
 Reference value :  1.07502e-05
 Reference value :  1.07502e-05
 Reference value :  1.07502e-05
 Reference value :  1.07502e-05
 Reference value :  1.07502e-05
 Reference value :  1.07502e-05
 Reference value :  1.07503e-05
 Reference value :  1.07503e-05
 Reference value :  1.07505e-05
 Reference value :  1.07506e-05
 Reference value :  1.07509e-05
 Reference value :  1.07515e-05
 Reference value :  1.07521e-05
 Reference value :  1.07529e-05
 Reference value :  1.07536e-05
 Reference value :  1.07545e-05
 Reference value :  1.07556e-05
 Reference value :  1.07566e-05
 Reference value :  1.07577e-05
 Reference value :  1.07588e-05
 Reference value :  1.07603e-05
 Reference value :  1.07624e-05
 Reference value :  1.07649e-05
 Reference value :  1.07689e-05
 Reference value :  1.07753e-05
 Reference value :  1.07860e-05
 Reference value :  1.08034e-05
 Reference value :  1.08379e-05
 Reference value :  1.09016e-05
 Reference value :  1.09618e-05
 Reference value :  1.10000e-05
 Reference value :  1.10000e-05
 Reference value :  1.10000e-05
 Reference value :  1.10001e-05
 Reference value :  1.10001e-05
 Reference value :  1.10001e-05
 Reference value :  1.10001e-05
 Reference value :  1.10001e-05
 Reference value :  1.10001e-05
 Reference value :  1.10001e-05
 Reference value :  1.10001e-05
 Reference value :  1.10002e-05
 Reference value :  1.10002e-05
 Reference value :  1.10004e-05
 Reference value :  1.10005e-05
 Reference value :  1.10009e-05
 Reference value :  1.10014e-05
 Reference value :  1.10019e-05
 Reference value :  1.10026e-05
 Reference value :  1.10033e-05
 Reference value :  1.10040e-05
 Reference value :  1.10047e-05
 Reference value :  1.10056e-05
 Reference value :  1.10064e-05
 Reference value :  1.10076e-05
 Reference value :  1.10089e-05
 Reference value :  1.10109e-05
 Reference value :  1.10124e-05
 Reference value :  1.10139e-05
 Reference value :  1.10155e-05
 Reference value :  1.10172e-05
 Reference value :  1.10190e-05
 Reference value :  1.10226e-05
 Reference value :  1.10271e-05
 Reference value :  1.10357e-05
 Reference value :  1.10505e-05
 Reference value :  1.10759e-05
 Reference value :  1.11267e-05
 Reference value :  1.12284e-05
 Reference value :  1.12501e-05
 Reference value :  1.12501e-05
 Reference value :  1.12501e-05
 Reference value :  1.12502e-05
 Reference value :  1.12502e-05
 Reference value :  1.12502e-05
 Reference value :  1.12502e-05
 Reference value :  1.12502e-05
 Reference value :  1.12502e-05
 Reference value :  1.12502e-05
 Reference value :  1.12502e-05
 Reference value :  1.12503e-05
 Reference value :  1.12503e-05
 Reference value :  1.12505e-05
 Reference value :  1.12506e-05
 Reference value :  1.12509e-05
 Reference value :  1.12515e-05
 Reference value :  1.12521e-05
 Reference value :  1.12529e-05
 Reference value :  1.12536e-05
 Reference value :  1.12546e-05
 Reference value :  1.12556e-05
 Reference value :  1.12566e-05
 Reference value :  1.12575e-05
 Reference value :  1.12584e-05
 Reference value :  1.12596e-05
 Reference value :  1.12608e-05
 Reference value :  1.12622e-05
 Reference value :  1.12638e-05
 Reference value :  1.12661e-05
 Reference value :  1.12687e-05
 Reference value :  1.12730e-05
 Reference value :  1.12800e-05
 Reference value :  1.12939e-05
 Reference value :  1.13184e-05
 Reference value :  1.13642e-05
 Reference value :  1.14498e-05
 Reference value :  1.15000e-05
 Reference value :  1.15000e-05
 Reference value :  1.15000e-05
 Reference value :  1.15001e-05
 Reference value :  1.15001e-05
 Reference value :  1.15001e-05
 Reference value :  1.15001e-05
 Reference value :  1.15001e-05
 Reference value :  1.15001e-05
 Reference value :  1.15001e-05
 Reference value :  1.15001e-05
 Reference value :  1.15002e-05
 Reference value :  1.15002e-05
 Reference value :  1.15004e-05
 Reference value :  1.15005e-05
 Reference value :  1.15009e-05
 Reference value :  1.15014e-05
 Reference value :  1.15019e-05
 Reference value :  1.15027e-05
 Reference value :  1.15034e-05
 Reference value :  1.15041e-05
 Reference value :  1.15049e-05
 Reference value :  1.15057e-05
 Reference value :  1.15065e-05
 Reference value :  1.15074e-05
 Reference value :  1.15081e-05
 Reference value :  1.15089e-05
 Reference value :  1.15101e-05
 Reference value :  1.15112e-05
 Reference value :  1.15130e-05
 Reference value :  1.15152e-05
 Reference value :  1.15168e-05
 Reference value :  1.15186e-05
 Reference value :  1.15205e-05
 Reference value :  1.15225e-05
 Reference value :  1.15239e-05
 Reference value :  1.15254e-05
 Reference value :  1.15267e-05
 Reference value :  1.15282e-05
 Reference value :  1.15299e-05
 Reference value :  1.15317e-05
 Reference value :  1.15345e-05
 Reference value :  1.15380e-05
 Reference value :  1.15449e-05
 Reference value :  1.15561e-05
 Reference value :  1.15727e-05
 Reference value :  1.16042e-05
 Reference value :  1.16553e-05
 Reference value :  1.17125e-05
 Reference value :  1.17501e-05
 Reference value :  1.17501e-05
 Reference value :  1.17501e-05
 Reference value :  1.17502e-05
 Reference value :  1.17502e-05
 Reference value :  1.17502e-05
 Reference value :  1.17502e-05
 Reference value :  1.17502e-05
 Reference value :  1.17502e-05
 Reference value :  1.17502e-05
 Reference value :  1.17502e-05
 Reference value :  1.17503e-05
 Reference value :  1.17503e-05
 Reference value :  1.17505e-05
 Reference value :  1.17506e-05
 Reference value :  1.17509e-05
 Reference value :  1.17515e-05
 Reference value :  1.17521e-05
 Reference value :  1.17529e-05
 Reference value :  1.17536e-05
 Reference value :  1.17545e-05
 Reference value :  1.17556e-05
 Reference value :  1.17565e-05
 Reference value :  1.17575e-05
 Reference value :  1.17585e-05
 Reference value :  1.17599e-05
 Reference value :  1.17614e-05
 Reference value :  1.17640e-05
 Reference value :  1.17673e-05
 Reference value :  1.17727e-05
 Reference value :  1.17834e-05
 Reference value :  1.17991e-05
 Reference value :  1.18304e-05
 Reference value :  1.18929e-05
 Reference value :  1.20000e-05
 Reference value :  1.20000e-05
 Reference value :  1.20000e-05
 Reference value :  1.20001e-05
 Reference value :  1.20001e-05
 Reference value :  1.20001e-05
 Reference value :  1.20001e-05
 Reference value :  1.20001e-05
 Reference value :  1.20001e-05
 Reference value :  1.20001e-05
 Reference value :  1.20001e-05
 Reference value :  1.20002e-05
 Reference value :  1.20002e-05
 Reference value :  1.20004e-05
 Reference value :  1.20005e-05
 Reference value :  1.20009e-05
 Reference value :  1.20014e-05
 Reference value :  1.20019e-05
 Reference value :  1.20027e-05
 Reference value :  1.20034e-05
 Reference value :  1.20041e-05
 Reference value :  1.20049e-05
 Reference value :  1.20058e-05
 Reference value :  1.20068e-05
 Reference value :  1.20080e-05
 Reference value :  1.20096e-05
 Reference value :  1.20111e-05
 Reference value :  1.20129e-05
 Reference value :  1.20145e-05
 Reference value :  1.20164e-05
 Reference value :  1.20182e-05
 Reference value :  1.20205e-05
 Reference value :  1.20240e-05
 Reference value :  1.20292e-05
 Reference value :  1.20383e-05
 Reference value :  1.20548e-05
 Reference value :  1.20841e-05
 Reference value :  1.21397e-05
 Reference value :  1.22501e-05
 Reference value :  1.22501e-05
 Reference value :  1.22501e-05
 Reference value :  1.22502e-05
 Reference value :  1.22502e-05
 Reference value :  1.22502e-05
 Reference value :  1.22502e-05
 Reference value :  1.22502e-05
 Reference value :  1.22502e-05
 Reference value :  1.22502e-05
 Reference value :  1.22502e-05
 Reference value :  1.22503e-05
 Reference value :  1.22503e-05
 Reference value :  1.22505e-05
 Reference value :  1.22506e-05
 Reference value :  1.22509e-05
 Reference value :  1.22515e-05
 Reference value :  1.22521e-05
 Reference value :  1.22529e-05
 Reference value :  1.22536e-05
 Reference value :  1.22545e-05
 Reference value :  1.22556e-05
 Reference value :  1.22565e-05
 Reference value :  1.22575e-05
 Reference value :  1.22584e-05
 Reference value :  1.22594e-05
 Reference value :  1.22606e-05
 Reference value :  1.22620e-05
 Reference value :  1.22635e-05
 Reference value :  1.22659e-05
 Reference value :  1.22685e-05
 Reference value :  1.22721e-05
 Reference value :  1.22772e-05
 Reference value :  1.22875e-05
 Reference value :  1.23080e-05
 Reference value :  1.23490e-05
 Reference value :  1.24311e-05
 Reference value :  1.25000e-05
 Reference value :  1.25000e-05
 Reference value :  1.25000e-05
 Reference value :  1.25001e-05
 Reference value :  1.25001e-05
 Reference value :  1.25001e-05
 Reference value :  1.25001e-05
 Reference value :  1.25001e-05
 Reference value :  1.25001e-05
 Reference value :  1.25001e-05
 Reference value :  1.25001e-05
 Reference value :  1.25002e-05
 Reference value :  1.25002e-05
 Reference value :  1.25004e-05
 Reference value :  1.25005e-05
 Reference value :  1.25009e-05
 Reference value :  1.25014e-05
 Reference value :  1.25019e-05
 Reference value :  1.25027e-05
 Reference value :  1.25034e-05
 Reference value :  1.25041e-05
 Reference value :  1.25049e-05
 Reference value :  1.25057e-05
 Reference value :  1.25065e-05
 Reference value :  1.25073e-05
 Reference value :  1.25080e-05
 Reference value :  1.25089e-05
 Reference value :  1.25097e-05
 Reference value :  1.25109e-05
 Reference value :  1.25121e-05
 Reference value :  1.25142e-05
 Reference value :  1.25164e-05
 Reference value :  1.25181e-05
 Reference value :  1.25200e-05
 Reference value :  1.25225e-05
 Reference value :  1.25246e-05
 Reference value :  1.25261e-05
 Reference value :  1.25276e-05
 Reference value :  1.25292e-05
 Reference value :  1.25309e-05
 Reference value :  1.25328e-05
 Reference value :  1.25359e-05
 Reference value :  1.25390e-05
 Reference value :  1.25452e-05
 Reference value :  1.25546e-05
 Reference value :  1.25706e-05
 Reference value :  1.25949e-05
 Reference value :  1.26231e-05
 Reference value :  1.26374e-05
 Reference value :  1.26587e-05
 Reference value :  1.26791e-05
 Reference value :  1.26972e-05
 Reference value :  1.27219e-05
 Reference value :  1.27501e-05
 Reference value :  1.27501e-05
 Reference value :  1.27501e-05
 Reference value :  1.27502e-05
 Reference value :  1.27502e-05
 Reference value :  1.27502e-05
 Reference value :  1.27502e-05
 Reference value :  1.27502e-05
 Reference value :  1.27502e-05
 Reference value :  1.27502e-05
 Reference value :  1.27502e-05
 Reference value :  1.27503e-05
 Reference value :  1.27503e-05
 Reference value :  1.27504e-05
 Reference value :  1.27506e-05
 Reference value :  1.27508e-05
 Reference value :  1.27511e-05
 Reference value :  1.27517e-05
 Reference value :  1.27523e-05
 Reference value :  1.27530e-05
 Reference value :  1.27538e-05
 Reference value :  1.27547e-05
 Reference value :  1.27555e-05
 Reference value :  1.27565e-05
 Reference value :  1.27574e-05
 Reference value :  1.27583e-05
 Reference value :  1.27599e-05
 Reference value :  1.27614e-05
 Reference value :  1.27640e-05
 Reference value :  1.27674e-05
 Reference value :  1.27727e-05
 Reference value :  1.27833e-05
 Reference value :  1.28044e-05
 Reference value :  1.28467e-05
 Reference value :  1.29312e-05
 Reference value :  1.30000e-05
 Reference value :  1.30000e-05
 Reference value :  1.30000e-05
 Reference value :  1.30001e-05
 Reference value :  1.30001e-05
 Reference value :  1.30001e-05
 Reference value :  1.30001e-05
 Reference value :  1.30001e-05
 Reference value :  1.30001e-05
 Reference value :  1.30001e-05
 Reference value :  1.30001e-05
 Reference value :  1.30002e-05
 Reference value :  1.30002e-05
 Reference value :  1.30004e-05
 Reference value :  1.30006e-05
 Reference value :  1.30011e-05
 Reference value :  1.30017e-05
 Reference value :  1.30025e-05
 Reference value :  1.30031e-05
 Reference value :  1.30039e-05
 Reference value :  1.30048e-05
 Reference value :  1.30058e-05
 Reference value :  1.30067e-05
 Reference value :  1.30079e-05
 Reference value :  1.30093e-05
 Reference value :  1.30110e-05
 Reference value :  1.30123e-05
 Reference value :  1.30138e-05
 Reference value :  1.30152e-05
 Reference value :  1.30169e-05
 Reference value :  1.30186e-05
 Reference value :  1.30219e-05
 Reference value :  1.30266e-05
 Reference value :  1.30354e-05
 Reference value :  1.30520e-05
 Reference value :  1.30813e-05
 Reference value :  1.31399e-05
 Reference value :  1.32501e-05
 Reference value :  1.32501e-05
 Reference value :  1.32501e-05
 Reference value :  1.32502e-05
 Reference value :  1.32502e-05
 Reference value :  1.32502e-05
 Reference value :  1.32502e-05
 Reference value :  1.32502e-05
 Reference value :  1.32502e-05
 Reference value :  1.32502e-05
 Reference value :  1.32502e-05
 Reference value :  1.32503e-05
 Reference value :  1.32503e-05
 Reference value :  1.32504e-05
 Reference value :  1.32506e-05
 Reference value :  1.32508e-05
 Reference value :  1.32511e-05
 Reference value :  1.32517e-05
 Reference value :  1.32523e-05
 Reference value :  1.32530e-05
 Reference value :  1.32538e-05
 Reference value :  1.32547e-05
 Reference value :  1.32555e-05
 Reference value :  1.32565e-05
 Reference value :  1.32573e-05
 Reference value :  1.32582e-05
 Reference value :  1.32592e-05
 Reference value :  1.32604e-05
 Reference value :  1.32618e-05
 Reference value :  1.32633e-05
 Reference value :  1.32656e-05
 Reference value :  1.32681e-05
 Reference value :  1.32719e-05
 Reference value :  1.32771e-05
 Reference value :  1.32876e-05
 Reference value :  1.33084e-05
 Reference value :  1.33501e-05
 Reference value :  1.34335e-05
 Reference value :  1.35000e-05
 Reference value :  1.35000e-05
 Reference value :  1.35000e-05
 Reference value :  1.35001e-05
 Reference value :  1.35001e-05
 Reference value :  1.35001e-05
 Reference value :  1.35001e-05
 Reference value :  1.35001e-05
 Reference value :  1.35001e-05
 Reference value :  1.35001e-05
 Reference value :  1.35001e-05
 Reference value :  1.35002e-05
 Reference value :  1.35002e-05
 Reference value :  1.35004e-05
 Reference value :  1.35006e-05
 Reference value :  1.35011e-05
 Reference value :  1.35017e-05
 Reference value :  1.35025e-05
 Reference value :  1.35031e-05
 Reference value :  1.35039e-05
 Reference value :  1.35047e-05
 Reference value :  1.35056e-05
 Reference value :  1.35064e-05
 Reference value :  1.35072e-05
 Reference value :  1.35079e-05
 Reference value :  1.35087e-05
 Reference value :  1.35097e-05
 Reference value :  1.35108e-05
 Reference value :  1.35129e-05
 Reference value :  1.35151e-05
 Reference value :  1.35174e-05
 Reference value :  1.35195e-05
 Reference value :  1.35213e-05
 Reference value :  1.35234e-05
 Reference value :  1.35255e-05
 Reference value :  1.35274e-05
 Reference value :  1.35291e-05
 Reference value :  1.35307e-05
 Reference value :  1.35324e-05
 Reference value :  1.35343e-05
 Reference value :  1.35369e-05
 Reference value :  1.35399e-05
 Reference value :  1.35445e-05
 Reference value :  1.35496e-05
 Reference value :  1.35560e-05
 Reference value :  1.35622e-05
 Reference value :  1.35675e-05
 Reference value :  1.35726e-05
 Reference value :  1.35779e-05
 Reference value :  1.35833e-05
 Reference value :  1.35921e-05
 Reference value :  1.36025e-05
 Reference value :  1.36200e-05
 Reference value :  1.36513e-05
 Reference value :  1.37048e-05
 Reference value :  1.37501e-05
 Reference value :  1.37501e-05
 Reference value :  1.37501e-05
 Reference value :  1.37502e-05
 Reference value :  1.37502e-05
 Reference value :  1.37502e-05
 Reference value :  1.37502e-05
 Reference value :  1.37502e-05
 Reference value :  1.37502e-05
 Reference value :  1.37502e-05
 Reference value :  1.37502e-05
 Reference value :  1.37503e-05
 Reference value :  1.37503e-05
 Reference value :  1.37504e-05
 Reference value :  1.37506e-05
 Reference value :  1.37508e-05
 Reference value :  1.37511e-05
 Reference value :  1.37517e-05
 Reference value :  1.37523e-05
 Reference value :  1.37530e-05
 Reference value :  1.37538e-05
 Reference value :  1.37547e-05
 Reference value :  1.37558e-05
 Reference value :  1.37565e-05
 Reference value :  1.37574e-05
 Reference value :  1.37584e-05
 Reference value :  1.37595e-05
 Reference value :  1.37607e-05
 Reference value :  1.37631e-05
 Reference value :  1.37662e-05
 Reference value :  1.37707e-05
 Reference value :  1.37793e-05
 Reference value :  1.37964e-05
 Reference value :  1.38307e-05
 Reference value :  1.38993e-05
 Reference value :  1.40000e-05
 Reference value :  1.40000e-05
 Reference value :  1.40000e-05
 Reference value :  1.40001e-05
 Reference value :  1.40001e-05
 Reference value :  1.40001e-05
 Reference value :  1.40001e-05
 Reference value :  1.40001e-05
 Reference value :  1.40001e-05
 Reference value :  1.40001e-05
 Reference value :  1.40001e-05
 Reference value :  1.40002e-05
 Reference value :  1.40002e-05
 Reference value :  1.40004e-05
 Reference value :  1.40006e-05
 Reference value :  1.40010e-05
 Reference value :  1.40017e-05
 Reference value :  1.40024e-05
 Reference value :  1.40031e-05
 Reference value :  1.40039e-05
 Reference value :  1.40048e-05
 Reference value :  1.40058e-05
 Reference value :  1.40067e-05
 Reference value :  1.40078e-05
 Reference value :  1.40092e-05
 Reference value :  1.40108e-05
 Reference value :  1.40122e-05
 Reference value :  1.40136e-05
 Reference value :  1.40150e-05
 Reference value :  1.40167e-05
 Reference value :  1.40184e-05
 Reference value :  1.40218e-05
 Reference value :  1.40267e-05
 Reference value :  1.40364e-05
 Reference value :  1.40548e-05
 Reference value :  1.40882e-05
 Reference value :  1.41550e-05
 Reference value :  1.42501e-05
 Reference value :  1.42501e-05
 Reference value :  1.42501e-05
 Reference value :  1.42502e-05
 Reference value :  1.42502e-05
 Reference value :  1.42502e-05
 Reference value :  1.42502e-05
 Reference value :  1.42502e-05
 Reference value :  1.42502e-05
 Reference value :  1.42502e-05
 Reference value :  1.42502e-05
 Reference value :  1.42503e-05
 Reference value :  1.42503e-05
 Reference value :  1.42504e-05
 Reference value :  1.42506e-05
 Reference value :  1.42508e-05
 Reference value :  1.42511e-05
 Reference value :  1.42517e-05
 Reference value :  1.42523e-05
 Reference value :  1.42530e-05
 Reference value :  1.42538e-05
 Reference value :  1.42547e-05
 Reference value :  1.42557e-05
 Reference value :  1.42565e-05
 Reference value :  1.42574e-05
 Reference value :  1.42584e-05
 Reference value :  1.42593e-05
 Reference value :  1.42607e-05
 Reference value :  1.42621e-05
 Reference value :  1.42649e-05
 Reference value :  1.42687e-05
 Reference value :  1.42763e-05
 Reference value :  1.42914e-05
 Reference value :  1.43202e-05
 Reference value :  1.43779e-05
 Reference value :  1.44933e-05
 Reference value :  1.45000e-05
 Reference value :  1.45000e-05
 Reference value :  1.45000e-05
 Reference value :  1.45001e-05
 Reference value :  1.45001e-05
 Reference value :  1.45001e-05
 Reference value :  1.45001e-05
 Reference value :  1.45001e-05
 Reference value :  1.45001e-05
 Reference value :  1.45001e-05
 Reference value :  1.45001e-05
 Reference value :  1.45002e-05
 Reference value :  1.45002e-05
 Reference value :  1.45004e-05
 Reference value :  1.45006e-05
 Reference value :  1.45010e-05
 Reference value :  1.45017e-05
 Reference value :  1.45024e-05
 Reference value :  1.45031e-05
 Reference value :  1.45039e-05
 Reference value :  1.45048e-05
 Reference value :  1.45057e-05
 Reference value :  1.45067e-05
 Reference value :  1.45076e-05
 Reference value :  1.45086e-05
 Reference value :  1.45096e-05
 Reference value :  1.45109e-05
 Reference value :  1.45127e-05
 Reference value :  1.45150e-05
 Reference value :  1.45194e-05
 Reference value :  1.45238e-05
 Reference value :  1.45271e-05
 Reference value :  1.45299e-05
 Reference value :  1.45325e-05
 Reference value :  1.45352e-05
 Reference value :  1.45379e-05
 Reference value :  1.45412e-05
 Reference value :  1.45444e-05
 Reference value :  1.45504e-05
 Reference value :  1.45569e-05
 Reference value :  1.45673e-05
 Reference value :  1.45820e-05
 Reference value :  1.46026e-05
 Reference value :  1.46321e-05
 Reference value :  1.46806e-05
 Reference value :  1.47491e-05
 Reference value :  1.47501e-05
 Reference value :  1.47501e-05
 Reference value :  1.47501e-05
 Reference value :  1.47502e-05
 Reference value :  1.47502e-05
 Reference value :  1.47502e-05
 Reference value :  1.47502e-05
 Reference value :  1.47502e-05
 Reference value :  1.47502e-05
 Reference value :  1.47502e-05
 Reference value :  1.47502e-05
 Reference value :  1.47503e-05
 Reference value :  1.47503e-05
 Reference value :  1.47504e-05
 Reference value :  1.47506e-05
 Reference value :  1.47508e-05
 Reference value :  1.47511e-05
 Reference value :  1.47517e-05
 Reference value :  1.47523e-05
 Reference value :  1.47530e-05
 Reference value :  1.47537e-05
 Reference value :  1.47546e-05
 Reference value :  1.47557e-05
 Reference value :  1.47569e-05
 Reference value :  1.47579e-05
 Reference value :  1.47590e-05
 Reference value :  1.47602e-05
 Reference value :  1.47621e-05
 Reference value :  1.47638e-05
 Reference value :  1.47673e-05
 Reference value :  1.47723e-05
 Reference value :  1.47810e-05
 Reference value :  1.47973e-05
 Reference value :  1.48266e-05
 Reference value :  1.48851e-05
 Reference value :  1.50000e-05
 Reference value :  1.50000e-05
 Reference value :  1.50000e-05
 Reference value :  1.50001e-05
 Reference value :  1.50001e-05
 Reference value :  1.50001e-05
 Reference value :  1.50001e-05
 Reference value :  1.50001e-05
 Reference value :  1.50001e-05
 Reference value :  1.50001e-05
 Reference value :  1.50001e-05
 Reference value :  1.50002e-05
 Reference value :  1.50002e-05
 Reference value :  1.50004e-05
 Reference value :  1.50006e-05
 Reference value :  1.50011e-05
 Reference value :  1.50017e-05
 Reference value :  1.50025e-05
 Reference value :  1.50031e-05
 Reference value :  1.50038e-05
 Reference value :  1.50048e-05
 Reference value :  1.50058e-05
 Reference value :  1.50067e-05
 Reference value :  1.50077e-05
 Reference value :  1.50088e-05
 Reference value :  1.50105e-05
 Reference value :  1.50123e-05
 Reference value :  1.50136e-05
 Reference value :  1.50152e-05
 Reference value :  1.50168e-05
[...]
 Reference value :  1.32001e-04
 Reference value :  1.32001e-04
 Reference value :  1.32002e-04
 Reference value :  1.32002e-04
 Reference value :  1.32003e-04
 Reference value :  1.32004e-04
 Reference value :  1.32005e-04
 Reference value :  1.32006e-04
 Reference value :  1.32006e-04
 Reference value :  1.32007e-04
 Reference value :  1.32009e-04
 Reference value :  1.32010e-04
 Reference value :  1.32012e-04
 Reference value :  1.32013e-04
 Reference value :  1.32015e-04
 Reference value :  1.32016e-04
 Reference value :  1.32018e-04
 Reference value :  1.32021e-04
 Reference value :  1.32028e-04
 Reference value :  1.32042e-04
 Reference value :  1.32069e-04
 Reference value :  1.32123e-04
 Reference value :  1.32231e-04
 Reference value :  1.32250e-04
 Reference value :  1.32250e-04
 Reference value :  1.32250e-04
 Reference value :  1.32250e-04
 Reference value :  1.32250e-04
 Reference value :  1.32250e-04
 Reference value :  1.32250e-04
 Reference value :  1.32250e-04
 Reference value :  1.32250e-04
 Reference value :  1.32250e-04
 Reference value :  1.32250e-04
 Reference value :  1.32250e-04
 Reference value :  1.32250e-04
 Reference value :  1.32250e-04
 Reference value :  1.32251e-04
 Reference value :  1.32251e-04
 Reference value :  1.32251e-04
 Reference value :  1.32252e-04
 Reference value :  1.32252e-04
 Reference value :  1.32253e-04
 Reference value :  1.32254e-04
 Reference value :  1.32255e-04
 Reference value :  1.32256e-04
 Reference value :  1.32256e-04
 Reference value :  1.32257e-04
 Reference value :  1.32258e-04
 Reference value :  1.32259e-04
 Reference value :  1.32260e-04
 Reference value :  1.32263e-04
 Reference value :  1.32266e-04
 Reference value :  1.32270e-04
 Reference value :  1.32277e-04
 Reference value :  1.32291e-04
 Reference value :  1.32320e-04
 Reference value :  1.32377e-04
 Reference value :  1.32492e-04
 Reference value :  1.32500e-04
 Reference value :  1.32500e-04
 Reference value :  1.32500e-04
 Reference value :  1.32500e-04
 Reference value :  1.32500e-04
 Reference value :  1.32500e-04
 Reference value :  1.32500e-04
 Reference value :  1.32500e-04
 Reference value :  1.32500e-04
 Reference value :  1.32500e-04
 Reference value :  1.32500e-04
 Reference value :  1.32500e-04
 Reference value :  1.32500e-04
 Reference value :  1.32500e-04
 Reference value :  1.32501e-04
 Reference value :  1.32501e-04
 Reference value :  1.32502e-04
 Reference value :  1.32502e-04
 Reference value :  1.32503e-04
 Reference value :  1.32504e-04
 Reference value :  1.32505e-04
 Reference value :  1.32506e-04
 Reference value :  1.32506e-04
 Reference value :  1.32507e-04
 Reference value :  1.32508e-04
 Reference value :  1.32509e-04
 Reference value :  1.32510e-04
 Reference value :  1.32511e-04
 Reference value :  1.32514e-04
 Reference value :  1.32516e-04
 Reference value :  1.32520e-04
 Reference value :  1.32523e-04
 Reference value :  1.32526e-04
 Reference value :  1.32529e-04
 Reference value :  1.32531e-04
 Reference value :  1.32534e-04
 Reference value :  1.32537e-04
 Reference value :  1.32539e-04
 Reference value :  1.32543e-04
 Reference value :  1.32548e-04
 Reference value :  1.32554e-04
 Reference value :  1.32561e-04
 Reference value :  1.32569e-04
 Reference value :  1.32576e-04
 Reference value :  1.32585e-04
 Reference value :  1.32591e-04
 Reference value :  1.32597e-04
 Reference value :  1.32605e-04
 Reference value :  1.32612e-04
 Reference value :  1.32619e-04
 Reference value :  1.32627e-04
 Reference value :  1.32641e-04
 Reference value :  1.32657e-04
 Reference value :  1.32671e-04
 Reference value :  1.32690e-04
 Reference value :  1.32709e-04
 Reference value :  1.32746e-04
 Reference value :  1.32750e-04
 Reference value :  1.32750e-04
 Reference value :  1.32750e-04
 Reference value :  1.32750e-04
 Reference value :  1.32750e-04
 Reference value :  1.32750e-04
 Reference value :  1.32750e-04
 Reference value :  1.32750e-04
 Reference value :  1.32750e-04
 Reference value :  1.32750e-04
 Reference value :  1.32750e-04
 Reference value :  1.32750e-04
 Reference value :  1.32750e-04
 Reference value :  1.32750e-04
 Reference value :  1.32751e-04
 Reference value :  1.32751e-04
 Reference value :  1.32751e-04
 Reference value :  1.32752e-04
 Reference value :  1.32752e-04
 Reference value :  1.32753e-04
 Reference value :  1.32754e-04
 Reference value :  1.32755e-04
 Reference value :  1.32756e-04
 Reference value :  1.32757e-04
 Reference value :  1.32757e-04
 Reference value :  1.32758e-04
 Reference value :  1.32759e-04
 Reference value :  1.32761e-04
 Reference value :  1.32763e-04
 Reference value :  1.32766e-04
 Reference value :  1.32771e-04
 Reference value :  1.32779e-04
 Reference value :  1.32796e-04
 Reference value :  1.32831e-04
 Reference value :  1.32899e-04
 Reference value :  1.33000e-04
 Reference value :  1.33000e-04
 Reference value :  1.33000e-04
 Reference value :  1.33000e-04
 Reference value :  1.33000e-04
 Reference value :  1.33000e-04
 Reference value :  1.33000e-04
 Reference value :  1.33000e-04
 Reference value :  1.33000e-04
 Reference value :  1.33000e-04
 Reference value :  1.33000e-04
 Reference value :  1.33000e-04
 Reference value :  1.33000e-04
 Reference value :  1.33000e-04
 Reference value :  1.33001e-04
 Reference value :  1.33001e-04
 Reference value :  1.33002e-04
 Reference value :  1.33002e-04
 Reference value :  1.33003e-04
 Reference value :  1.33004e-04
 Reference value :  1.33005e-04
 Reference value :  1.33006e-04
 Reference value :  1.33007e-04
 Reference value :  1.33008e-04
 Reference value :  1.33009e-04
 Reference value :  1.33011e-04
 Reference value :  1.33012e-04
 Reference value :  1.33014e-04
 Reference value :  1.33015e-04
 Reference value :  1.33017e-04
 Reference value :  1.33019e-04
 Reference value :  1.33022e-04
 Reference value :  1.33027e-04
 Reference value :  1.33036e-04
 Reference value :  1.33054e-04
 Reference value :  1.33085e-04
 Reference value :  1.33146e-04
 Reference value :  1.33250e-04
 Reference value :  1.33250e-04
 Reference value :  1.33250e-04
 Reference value :  1.33250e-04
 Reference value :  1.33250e-04
 Reference value :  1.33250e-04
 Reference value :  1.33250e-04
 Reference value :  1.33250e-04
 Reference value :  1.33250e-04
 Reference value :  1.33250e-04
 Reference value :  1.33250e-04
 Reference value :  1.33250e-04
 Reference value :  1.33250e-04
 Reference value :  1.33250e-04
 Reference value :  1.33251e-04
 Reference value :  1.33251e-04
 Reference value :  1.33251e-04
 Reference value :  1.33252e-04
 Reference value :  1.33252e-04
 Reference value :  1.33253e-04
 Reference value :  1.33254e-04
 Reference value :  1.33255e-04
 Reference value :  1.33256e-04
 Reference value :  1.33256e-04
 Reference value :  1.33257e-04
 Reference value :  1.33258e-04
 Reference value :  1.33259e-04
 Reference value :  1.33260e-04
 Reference value :  1.33262e-04
 Reference value :  1.33263e-04
 Reference value :  1.33265e-04
 Reference value :  1.33267e-04
 Reference value :  1.33269e-04
 Reference value :  1.33274e-04
 Reference value :  1.33282e-04
 Reference value :  1.33294e-04
 Reference value :  1.33317e-04
 Reference value :  1.33355e-04
 Reference value :  1.33422e-04
 Reference value :  1.33500e-04
 Reference value :  1.33500e-04
 Reference value :  1.33500e-04
 Reference value :  1.33500e-04
 Reference value :  1.33500e-04
 Reference value :  1.33500e-04
 Reference value :  1.33500e-04
 Reference value :  1.33500e-04
 Reference value :  1.33500e-04
 Reference value :  1.33500e-04
 Reference value :  1.33500e-04
 Reference value :  1.33500e-04
 Reference value :  1.33500e-04
 Reference value :  1.33500e-04
 Reference value :  1.33501e-04
 Reference value :  1.33501e-04
 Reference value :  1.33502e-04
 Reference value :  1.33502e-04
 Reference value :  1.33503e-04
 Reference value :  1.33504e-04
 Reference value :  1.33505e-04
 Reference value :  1.33506e-04
 Reference value :  1.33507e-04
 Reference value :  1.33508e-04
 Reference value :  1.33509e-04
 Reference value :  1.33510e-04
 Reference value :  1.33511e-04
 Reference value :  1.33512e-04
 Reference value :  1.33514e-04
 Reference value :  1.33517e-04
 Reference value :  1.33519e-04
 Reference value :  1.33521e-04
 Reference value :  1.33523e-04
 Reference value :  1.33526e-04
 Reference value :  1.33528e-04
 Reference value :  1.33530e-04
 Reference value :  1.33531e-04
 Reference value :  1.33533e-04
 Reference value :  1.33535e-04
 Reference value :  1.33537e-04
 Reference value :  1.33540e-04
 Reference value :  1.33545e-04
 Reference value :  1.33550e-04
 Reference value :  1.33555e-04
 Reference value :  1.33562e-04
 Reference value :  1.33573e-04
 Reference value :  1.33591e-04
 Reference value :  1.33624e-04
 Reference value :  1.33677e-04
 Reference value :  1.33750e-04
 Reference value :  1.33750e-04
 Reference value :  1.33750e-04
 Reference value :  1.33750e-04
 Reference value :  1.33750e-04
 Reference value :  1.33750e-04
 Reference value :  1.33750e-04
 Reference value :  1.33750e-04
 Reference value :  1.33750e-04
 Reference value :  1.33750e-04
 Reference value :  1.33750e-04
 Reference value :  1.33750e-04
 Reference value :  1.33750e-04
 Reference value :  1.33750e-04
 Reference value :  1.33751e-04
 Reference value :  1.33751e-04
 Reference value :  1.33751e-04
 Reference value :  1.33752e-04
 Reference value :  1.33752e-04
 Reference value :  1.33753e-04
 Reference value :  1.33754e-04
 Reference value :  1.33755e-04
 Reference value :  1.33756e-04
 Reference value :  1.33757e-04
 Reference value :  1.33758e-04
 Reference value :  1.33759e-04
 Reference value :  1.33760e-04
 Reference value :  1.33762e-04
 Reference value :  1.33764e-04
 Reference value :  1.33767e-04
 Reference value :  1.33773e-04
 Reference value :  1.33781e-04
 Reference value :  1.33798e-04
 Reference value :  1.33827e-04
 Reference value :  1.33884e-04
 Reference value :  1.33998e-04
 Reference value :  1.34000e-04
 Reference value :  1.34000e-04
 Reference value :  1.34000e-04
 Reference value :  1.34000e-04
 Reference value :  1.34000e-04
 Reference value :  1.34000e-04
 Reference value :  1.34000e-04
 Reference value :  1.34000e-04
 Reference value :  1.34000e-04
 Reference value :  1.34000e-04
 Reference value :  1.34000e-04
 Reference value :  1.34000e-04
 Reference value :  1.34000e-04
 Reference value :  1.34000e-04
 Reference value :  1.34001e-04
 Reference value :  1.34001e-04
 Reference value :  1.34002e-04
 Reference value :  1.34002e-04
 Reference value :  1.34003e-04
 Reference value :  1.34004e-04
 Reference value :  1.34005e-04
 Reference value :  1.34006e-04
 Reference value :  1.34007e-04
 Reference value :  1.34008e-04
 Reference value :  1.34009e-04
 Reference value :  1.34011e-04
 Reference value :  1.34013e-04
 Reference value :  1.34014e-04
 Reference value :  1.34016e-04
 Reference value :  1.34017e-04
 Reference value :  1.34019e-04
 Reference value :  1.34023e-04
 Reference value :  1.34028e-04
 Reference value :  1.34037e-04
 Reference value :  1.34052e-04
 Reference value :  1.34082e-04
 Reference value :  1.34137e-04
 Reference value :  1.34241e-04
 Reference value :  1.34250e-04
 Reference value :  1.34250e-04
 Reference value :  1.34250e-04
 Reference value :  1.34250e-04
 Reference value :  1.34250e-04
 Reference value :  1.34250e-04
 Reference value :  1.34250e-04
 Reference value :  1.34250e-04
 Reference value :  1.34250e-04
 Reference value :  1.34250e-04
 Reference value :  1.34250e-04
 Reference value :  1.34250e-04
 Reference value :  1.34250e-04
 Reference value :  1.34250e-04
 Reference value :  1.34251e-04
 Reference value :  1.34251e-04
 Reference value :  1.34251e-04
 Reference value :  1.34252e-04
 Reference value :  1.34252e-04
 Reference value :  1.34253e-04
 Reference value :  1.34254e-04
 Reference value :  1.34255e-04
 Reference value :  1.34256e-04
 Reference value :  1.34257e-04
 Reference value :  1.34258e-04
 Reference value :  1.34259e-04
 Reference value :  1.34260e-04
 Reference value :  1.34261e-04
 Reference value :  1.34262e-04
 Reference value :  1.34263e-04
 Reference value :  1.34265e-04
 Reference value :  1.34267e-04
 Reference value :  1.34270e-04
 Reference value :  1.34274e-04
 Reference value :  1.34281e-04
 Reference value :  1.34293e-04
 Reference value :  1.34318e-04
 Reference value :  1.34363e-04
 Reference value :  1.34454e-04
 Reference value :  1.34500e-04
 Reference value :  1.34500e-04
 Reference value :  1.34500e-04
 Reference value :  1.34500e-04
 Reference value :  1.34500e-04
 Reference value :  1.34500e-04
 Reference value :  1.34500e-04
 Reference value :  1.34500e-04
 Reference value :  1.34500e-04
 Reference value :  1.34500e-04
 Reference value :  1.34500e-04
 Reference value :  1.34500e-04
 Reference value :  1.34500e-04
 Reference value :  1.34500e-04
 Reference value :  1.34501e-04
 Reference value :  1.34501e-04
 Reference value :  1.34502e-04
 Reference value :  1.34502e-04
 Reference value :  1.34503e-04
 Reference value :  1.34504e-04
 Reference value :  1.34505e-04
 Reference value :  1.34506e-04
 Reference value :  1.34507e-04
 Reference value :  1.34507e-04
 Reference value :  1.34508e-04
 Reference value :  1.34509e-04
 Reference value :  1.34510e-04
 Reference value :  1.34511e-04
 Reference value :  1.34512e-04
 Reference value :  1.34515e-04
 Reference value :  1.34518e-04
 Reference value :  1.34520e-04
 Reference value :  1.34522e-04
 Reference value :  1.34524e-04
 Reference value :  1.34526e-04
 Reference value :  1.34528e-04
 Reference value :  1.34530e-04
 Reference value :  1.34532e-04
 Reference value :  1.34534e-04
 Reference value :  1.34536e-04
 Reference value :  1.34538e-04
 Reference value :  1.34542e-04
 Reference value :  1.34546e-04
 Reference value :  1.34553e-04
 Reference value :  1.34564e-04
 Reference value :  1.34581e-04
 Reference value :  1.34609e-04
 Reference value :  1.34653e-04
 Reference value :  1.34727e-04
 Reference value :  1.34750e-04
 Reference value :  1.34750e-04
 Reference value :  1.34750e-04
 Reference value :  1.34750e-04
 Reference value :  1.34750e-04
 Reference value :  1.34750e-04
 Reference value :  1.34750e-04
 Reference value :  1.34750e-04
 Reference value :  1.34750e-04
 Reference value :  1.34750e-04
 Reference value :  1.34750e-04
 Reference value :  1.34750e-04
 Reference value :  1.34750e-04
 Reference value :  1.34750e-04
 Reference value :  1.34751e-04
 Reference value :  1.34751e-04
 Reference value :  1.34751e-04
 Reference value :  1.34752e-04
 Reference value :  1.34752e-04
 Reference value :  1.34753e-04
 Reference value :  1.34754e-04
 Reference value :  1.34755e-04
 Reference value :  1.34756e-04
 Reference value :  1.34757e-04
 Reference value :  1.34758e-04
 Reference value :  1.34759e-04
 Reference value :  1.34760e-04
 Reference value :  1.34762e-04
 Reference value :  1.34764e-04
 Reference value :  1.34768e-04
 Reference value :  1.34774e-04
 Reference value :  1.34785e-04
 Reference value :  1.34806e-04
 Reference value :  1.34847e-04
 Reference value :  1.34921e-04
 Reference value :  1.35000e-04
 Reference value :  1.35000e-04
 Reference value :  1.35000e-04
 Reference value :  1.35000e-04
 Reference value :  1.35000e-04
 Reference value :  1.35000e-04
 Reference value :  1.35000e-04
 Reference value :  1.35000e-04
 Reference value :  1.35000e-04
 Reference value :  1.35000e-04
 Reference value :  1.35000e-04
 Reference value :  1.35000e-04
 Reference value :  1.35000e-04
 Reference value :  1.35000e-04
 Reference value :  1.35001e-04
 Reference value :  1.35001e-04
 Reference value :  1.35002e-04
 Reference value :  1.35002e-04
 Reference value :  1.35003e-04
 Reference value :  1.35004e-04
 Reference value :  1.35005e-04
 Reference value :  1.35006e-04
 Reference value :  1.35007e-04
 Reference value :  1.35008e-04
 Reference value :  1.35009e-04
 Reference value :  1.35011e-04
 Reference value :  1.35013e-04
 Reference value :  1.35015e-04
 Reference value :  1.35016e-04
 Reference value :  1.35019e-04
 Reference value :  1.35021e-04
 Reference value :  1.35025e-04
 Reference value :  1.35031e-04
 Reference value :  1.35040e-04
 Reference value :  1.35055e-04
 Reference value :  1.35080e-04
 Reference value :  1.35125e-04
 Reference value :  1.35192e-04
 Reference value :  1.35250e-04
 Reference value :  1.35250e-04
 Reference value :  1.35250e-04
 Reference value :  1.35250e-04
 Reference value :  1.35250e-04
 Reference value :  1.35250e-04
 Reference value :  1.35250e-04
 Reference value :  1.35250e-04
 Reference value :  1.35250e-04
 Reference value :  1.35250e-04
 Reference value :  1.35250e-04
 Reference value :  1.35250e-04
 Reference value :  1.35250e-04
 Reference value :  1.35250e-04
 Reference value :  1.35251e-04
 Reference value :  1.35251e-04
 Reference value :  1.35251e-04
 Reference value :  1.35252e-04
 Reference value :  1.35252e-04
 Reference value :  1.35253e-04
 Reference value :  1.35254e-04
 Reference value :  1.35255e-04
 Reference value :  1.35256e-04
 Reference value :  1.35257e-04
 Reference value :  1.35258e-04
 Reference value :  1.35259e-04
 Reference value :  1.35260e-04
 Reference value :  1.35261e-04
 Reference value :  1.35262e-04
 Reference value :  1.35264e-04
 Reference value :  1.35268e-04
 Reference value :  1.35275e-04
 Reference value :  1.35287e-04
 Reference value :  1.35302e-04
 Reference value :  1.35320e-04
 Reference value :  1.35350e-04
 Reference value :  1.35380e-04
 Reference value :  1.35441e-04
 Reference value :  1.35500e-04
 Reference value :  1.35500e-04
 Reference value :  1.35500e-04
 Reference value :  1.35500e-04
 Reference value :  1.35500e-04
 Reference value :  1.35500e-04
 Reference value :  1.35500e-04
 Reference value :  1.35500e-04
 Reference value :  1.35500e-04
 Reference value :  1.35500e-04
 Reference value :  1.35500e-04
 Reference value :  1.35500e-04
 Reference value :  1.35500e-04
 Reference value :  1.35500e-04
 Reference value :  1.35501e-04
 Reference value :  1.35501e-04
 Reference value :  1.35502e-04
 Reference value :  1.35502e-04
 Reference value :  1.35503e-04
 Reference value :  1.35504e-04
 Reference value :  1.35505e-04
 Reference value :  1.35506e-04
 Reference value :  1.35507e-04
 Reference value :  1.35508e-04
 Reference value :  1.35509e-04
 Reference value :  1.35510e-04
 Reference value :  1.35511e-04
 Reference value :  1.35512e-04
 Reference value :  1.35514e-04
 Reference value :  1.35516e-04
 Reference value :  1.35517e-04
 Reference value :  1.35519e-04
 Reference value :  1.35523e-04
 Reference value :  1.35528e-04
 Reference value :  1.35537e-04
 Reference value :  1.35555e-04
 Reference value :  1.35590e-04
 Reference value :  1.35647e-04
 Reference value :  1.35709e-04
 Reference value :  1.35750e-04
 Reference value :  1.35750e-04
 Reference value :  1.35750e-04
 Reference value :  1.35750e-04
 Reference value :  1.35750e-04
 Reference value :  1.35750e-04
 Reference value :  1.35750e-04
 Reference value :  1.35750e-04
 Reference value :  1.35750e-04
 Reference value :  1.35750e-04
 Reference value :  1.35750e-04
 Reference value :  1.35750e-04
 Reference value :  1.35750e-04
 Reference value :  1.35750e-04
 Reference value :  1.35751e-04
 Reference value :  1.35751e-04
 Reference value :  1.35751e-04
 Reference value :  1.35752e-04
 Reference value :  1.35753e-04
 Reference value :  1.35753e-04
 Reference value :  1.35754e-04
 Reference value :  1.35755e-04
 Reference value :  1.35757e-04
 Reference value :  1.35758e-04
 Reference value :  1.35760e-04
 Reference value :  1.35762e-04
 Reference value :  1.35764e-04
 Reference value :  1.35768e-04
 Reference value :  1.35773e-04
 Reference value :  1.35782e-04
 Reference value :  1.35796e-04
 Reference value :  1.35824e-04
 Reference value :  1.35879e-04
 Reference value :  1.35982e-04
 Reference value :  1.36000e-04
No. of Data Rows : 21645
ngspice-44 done
