
Note: Compatibility modes selected: hs a


Circuit: ** sch_path: /home/issa/cace/sar-adc-using-sky130-pdk/runs/run_2025-09-19_22-52-34/parameters/sampling_rate/run_1/sampling_rate.sch

option SCALE: Scale is set to 1e-06 for instance and model parameters
option SCALE: Scale is set to 1e-06 for instance and model parameters
option SCALE: Scale is set to 1e-06 for instance and model parameters
option SCALE: Scale is set to 1e-06 for instance and model parameters
Doing analysis at TEMP = 27.000000 and TNOM = 27.000000

Using KLU as Direct Linear Solver
 Reference value :  0.00000e+00
 Reference value :  1.00000e-12
 Reference value :  2.00000e-12
 Reference value :  4.00000e-12
 Reference value :  8.00000e-12
 Reference value :  1.60000e-11
 Reference value :  3.20000e-11
 Reference value :  6.40000e-11
 Reference value :  1.00000e-10
 Reference value :  1.01503e-10
 Reference value :  1.04508e-10
 Reference value :  1.10520e-10
 Reference value :  1.22542e-10
 Reference value :  1.46587e-10
 Reference value :  1.94677e-10
 Reference value :  2.90857e-10
 Reference value :  4.36273e-10
 Reference value :  7.02958e-10
 Reference value :  1.20543e-09
 Reference value :  1.70422e-09
 Reference value :  2.47408e-09
 Reference value :  3.11204e-09
 Reference value :  3.80783e-09
 Reference value :  4.60818e-09
 Reference value :  5.35826e-09
 Reference value :  6.05194e-09
 Reference value :  6.79941e-09
 Reference value :  7.53501e-09
 Reference value :  8.36099e-09
 Reference value :  9.32632e-09
 Reference value :  1.03541e-08
 Reference value :  1.15335e-08
 Reference value :  1.28056e-08
 Reference value :  1.40769e-08
 Reference value :  1.56351e-08
 Reference value :  1.72586e-08
 Reference value :  1.85799e-08
 Reference value :  1.99897e-08
 Reference value :  2.13310e-08
 Reference value :  2.31358e-08
 Reference value :  2.51476e-08
 Reference value :  2.73023e-08
 Reference value :  2.95590e-08
 Reference value :  3.22463e-08
 Reference value :  3.47597e-08
 Reference value :  3.72846e-08
 Reference value :  3.84080e-08
 Reference value :  3.95712e-08
 Reference value :  4.07746e-08
 Reference value :  4.22369e-08
 Reference value :  4.42533e-08
 Reference value :  4.69621e-08
 Reference value :  5.02686e-08
 Reference value :  5.37325e-08
 Reference value :  5.85413e-08
 Reference value :  6.36215e-08
 Reference value :  7.10269e-08
 Reference value :  8.25293e-08
 Reference value :  1.02874e-07
 Reference value :  1.27297e-07
 Reference value :  1.64294e-07
 Reference value :  2.14591e-07
 Reference value :  2.50100e-07
 Reference value :  2.50110e-07
 Reference value :  2.50130e-07
 Reference value :  2.50170e-07
 Reference value :  2.50200e-07
 Reference value :  2.50201e-07
 Reference value :  2.50202e-07
 Reference value :  2.50204e-07
 Reference value :  2.50208e-07
 Reference value :  2.50216e-07
 Reference value :  2.50233e-07
 Reference value :  2.50267e-07
 Reference value :  2.50335e-07
 Reference value :  2.50413e-07
 Reference value :  2.50569e-07
 Reference value :  2.50725e-07
 Reference value :  2.51036e-07
 Reference value :  2.51377e-07
 Reference value :  2.51886e-07
 Reference value :  2.52454e-07
 Reference value :  2.53281e-07
 Reference value :  2.54112e-07
 Reference value :  2.55197e-07
 Reference value :  2.55957e-07
 Reference value :  2.56813e-07
 Reference value :  2.57865e-07
 Reference value :  2.58925e-07
 Reference value :  2.60290e-07
 Reference value :  2.62542e-07
 Reference value :  2.64625e-07
 Reference value :  2.68750e-07
 Reference value :  2.74314e-07
 Reference value :  2.85440e-07
 Reference value :  3.07493e-07
 Reference value :  3.48786e-07
 Reference value :  4.31373e-07
 Reference value :  5.00000e-07
 Reference value :  5.00010e-07
 Reference value :  5.00030e-07
 Reference value :  5.00070e-07
 Reference value :  5.00100e-07
 Reference value :  5.00104e-07
 Reference value :  5.00113e-07
 Reference value :  5.00129e-07
 Reference value :  5.00163e-07
 Reference value :  5.00230e-07
 Reference value :  5.00364e-07
 Reference value :  5.00540e-07
 Reference value :  5.00893e-07
 Reference value :  5.01512e-07
 Reference value :  5.02197e-07
 Reference value :  5.02817e-07
 Reference value :  5.03503e-07
 Reference value :  5.04211e-07
 Reference value :  5.05145e-07
 Reference value :  5.06118e-07
 Reference value :  5.07107e-07
 Reference value :  5.08386e-07
 Reference value :  5.09822e-07
 Reference value :  5.11766e-07
 Reference value :  5.14081e-07
 Reference value :  5.15932e-07
 Reference value :  5.17921e-07
 Reference value :  5.20017e-07
 Reference value :  5.22501e-07
 Reference value :  5.25525e-07
 Reference value :  5.28290e-07
 Reference value :  5.33821e-07
 Reference value :  5.41823e-07
 Reference value :  5.52023e-07
 Reference value :  5.72423e-07
 Reference value :  6.08686e-07
 Reference value :  6.76506e-07
 Reference value :  7.50100e-07
 Reference value :  7.50110e-07
 Reference value :  7.50130e-07
 Reference value :  7.50170e-07
 Reference value :  7.50200e-07
 Reference value :  7.50201e-07
 Reference value :  7.50202e-07
 Reference value :  7.50205e-07
 Reference value :  7.50211e-07
 Reference value :  7.50224e-07
 Reference value :  7.50248e-07
 Reference value :  7.50297e-07
 Reference value :  7.50395e-07
 Reference value :  7.50590e-07
 Reference value :  7.50977e-07
 Reference value :  7.51389e-07
 Reference value :  7.51911e-07
 Reference value :  7.52518e-07
 Reference value :  7.53316e-07
 Reference value :  7.54225e-07
 Reference value :  7.55414e-07
 Reference value :  7.56519e-07
 Reference value :  7.57522e-07
 Reference value :  7.58610e-07
 Reference value :  7.59813e-07
 Reference value :  7.61109e-07
 Reference value :  7.63553e-07
 Reference value :  7.66719e-07
 Reference value :  7.72280e-07
 Reference value :  7.83401e-07
 Reference value :  8.03433e-07
 Reference value :  8.42133e-07
 Reference value :  9.15441e-07
 Reference value :  1.00000e-06
 Reference value :  1.00001e-06
 Reference value :  1.00003e-06
 Reference value :  1.00007e-06
 Reference value :  1.00010e-06
 Reference value :  1.00010e-06
 Reference value :  1.00011e-06
 Reference value :  1.00013e-06
 Reference value :  1.00016e-06
 Reference value :  1.00023e-06
 Reference value :  1.00036e-06
 Reference value :  1.00054e-06
 Reference value :  1.00089e-06
 Reference value :  1.00151e-06
 Reference value :  1.00220e-06
 Reference value :  1.00282e-06
 Reference value :  1.00346e-06
 Reference value :  1.00415e-06
 Reference value :  1.00499e-06
 Reference value :  1.00587e-06
 Reference value :  1.00672e-06
 Reference value :  1.00777e-06
 Reference value :  1.00888e-06
 Reference value :  1.00997e-06
 Reference value :  1.01100e-06
 Reference value :  1.01243e-06
 Reference value :  1.01413e-06
 Reference value :  1.01684e-06
 Reference value :  1.01885e-06
 Reference value :  1.02101e-06
 Reference value :  1.02262e-06
 Reference value :  1.02414e-06
 Reference value :  1.02558e-06
 Reference value :  1.02713e-06
 Reference value :  1.02883e-06
 Reference value :  1.03109e-06
 Reference value :  1.03343e-06
 Reference value :  1.03799e-06
 Reference value :  1.04432e-06
 Reference value :  1.05527e-06
 Reference value :  1.07338e-06
 Reference value :  1.09137e-06
 Reference value :  1.10590e-06
 Reference value :  1.11728e-06
 Reference value :  1.12749e-06
 Reference value :  1.13579e-06
 Reference value :  1.14175e-06
 Reference value :  1.14848e-06
 Reference value :  1.15707e-06
 Reference value :  1.16757e-06
 Reference value :  1.18148e-06
 Reference value :  1.20052e-06
 Reference value :  1.22982e-06
 Reference value :  1.25010e-06
 Reference value :  1.25011e-06
 Reference value :  1.25013e-06
 Reference value :  1.25017e-06
 Reference value :  1.25020e-06
 Reference value :  1.25020e-06
 Reference value :  1.25020e-06
 Reference value :  1.25021e-06
 Reference value :  1.25021e-06
 Reference value :  1.25022e-06
 Reference value :  1.25025e-06
 Reference value :  1.25030e-06
 Reference value :  1.25039e-06
 Reference value :  1.25059e-06
 Reference value :  1.25094e-06
 Reference value :  1.25136e-06
 Reference value :  1.25188e-06
 Reference value :  1.25249e-06
 Reference value :  1.25326e-06
 Reference value :  1.25414e-06
 Reference value :  1.25527e-06
 Reference value :  1.25622e-06
 Reference value :  1.25720e-06
 Reference value :  1.25830e-06
 Reference value :  1.25985e-06
 Reference value :  1.26148e-06
 Reference value :  1.26387e-06
 Reference value :  1.26706e-06
 Reference value :  1.27254e-06
 Reference value :  1.28351e-06
 Reference value :  1.30306e-06
 Reference value :  1.34113e-06
 Reference value :  1.41322e-06
 Reference value :  1.50000e-06
 Reference value :  1.50001e-06
 Reference value :  1.50003e-06
 Reference value :  1.50007e-06
 Reference value :  1.50010e-06
 Reference value :  1.50010e-06
 Reference value :  1.50011e-06
 Reference value :  1.50013e-06
 Reference value :  1.50016e-06
 Reference value :  1.50023e-06
 Reference value :  1.50036e-06
 Reference value :  1.50053e-06
 Reference value :  1.50087e-06
 Reference value :  1.50145e-06
 Reference value :  1.50221e-06
 Reference value :  1.50284e-06
 Reference value :  1.50350e-06
 Reference value :  1.50419e-06
 Reference value :  1.50515e-06
 Reference value :  1.50612e-06
 Reference value :  1.50707e-06
 Reference value :  1.50855e-06
 Reference value :  1.50991e-06
 Reference value :  1.51129e-06
 Reference value :  1.51286e-06
 Reference value :  1.51461e-06
 Reference value :  1.51630e-06
 Reference value :  1.51815e-06
 Reference value :  1.52049e-06
 Reference value :  1.52380e-06
 Reference value :  1.52934e-06
 Reference value :  1.53865e-06
 Reference value :  1.55582e-06
 Reference value :  1.58747e-06
 Reference value :  1.64683e-06
 Reference value :  1.75010e-06
 Reference value :  1.75011e-06
 Reference value :  1.75013e-06
 Reference value :  1.75017e-06
 Reference value :  1.75020e-06
 Reference value :  1.75020e-06
 Reference value :  1.75020e-06
 Reference value :  1.75021e-06
 Reference value :  1.75021e-06
 Reference value :  1.75022e-06
 Reference value :  1.75025e-06
 Reference value :  1.75030e-06
 Reference value :  1.75039e-06
 Reference value :  1.75059e-06
 Reference value :  1.75094e-06
 Reference value :  1.75136e-06
 Reference value :  1.75188e-06
 Reference value :  1.75249e-06
 Reference value :  1.75326e-06
 Reference value :  1.75413e-06
 Reference value :  1.75531e-06
 Reference value :  1.75623e-06
 Reference value :  1.75720e-06
 Reference value :  1.75823e-06
 Reference value :  1.75934e-06
 Reference value :  1.76057e-06
 Reference value :  1.76184e-06
 Reference value :  1.76324e-06
 Reference value :  1.76537e-06
 Reference value :  1.76770e-06
 Reference value :  1.77129e-06
 Reference value :  1.77696e-06
 Reference value :  1.78830e-06
 Reference value :  1.81098e-06
 Reference value :  1.85634e-06
 Reference value :  1.94707e-06
 Reference value :  2.00000e-06
 Reference value :  2.00001e-06
 Reference value :  2.00003e-06
 Reference value :  2.00007e-06
 Reference value :  2.00010e-06
 Reference value :  2.00010e-06
 Reference value :  2.00011e-06
 Reference value :  2.00013e-06
 Reference value :  2.00016e-06
 Reference value :  2.00023e-06
 Reference value :  2.00036e-06
 Reference value :  2.00053e-06
 Reference value :  2.00087e-06
 Reference value :  2.00144e-06
 Reference value :  2.00221e-06
 Reference value :  2.00288e-06
 Reference value :  2.00356e-06
 Reference value :  2.00427e-06
 Reference value :  2.00514e-06
 Reference value :  2.00590e-06
 Reference value :  2.00673e-06
 Reference value :  2.00781e-06
 Reference value :  2.00879e-06
 Reference value :  2.00973e-06
 Reference value :  2.01077e-06
 Reference value :  2.01213e-06
 Reference value :  2.01366e-06
 Reference value :  2.01583e-06
 Reference value :  2.01736e-06
 Reference value :  2.01906e-06
 Reference value :  2.02082e-06
 Reference value :  2.02217e-06
 Reference value :  2.02347e-06
 Reference value :  2.02487e-06
 Reference value :  2.02632e-06
 Reference value :  2.02798e-06
 Reference value :  2.02966e-06
 Reference value :  2.03221e-06
 Reference value :  2.03485e-06
 Reference value :  2.04012e-06
 Reference value :  2.04877e-06
 Reference value :  2.06244e-06
 Reference value :  2.08924e-06
 Reference value :  2.11708e-06
 Reference value :  2.14355e-06
 Reference value :  2.16191e-06
 Reference value :  2.17953e-06
 Reference value :  2.19563e-06
 Reference value :  2.21345e-06
 Reference value :  2.24499e-06
 Reference value :  2.25010e-06
 Reference value :  2.25011e-06
 Reference value :  2.25013e-06
 Reference value :  2.25017e-06
 Reference value :  2.25020e-06
 Reference value :  2.25020e-06
 Reference value :  2.25020e-06
 Reference value :  2.25021e-06
 Reference value :  2.25021e-06
 Reference value :  2.25022e-06
 Reference value :  2.25025e-06
 Reference value :  2.25029e-06
 Reference value :  2.25039e-06
 Reference value :  2.25058e-06
 Reference value :  2.25092e-06
 Reference value :  2.25135e-06
 Reference value :  2.25187e-06
 Reference value :  2.25248e-06
 Reference value :  2.25323e-06
 Reference value :  2.25411e-06
 Reference value :  2.25530e-06
 Reference value :  2.25619e-06
 Reference value :  2.25713e-06
 Reference value :  2.25821e-06
 Reference value :  2.25977e-06
 Reference value :  2.26119e-06
 Reference value :  2.26374e-06
 Reference value :  2.26665e-06
 Reference value :  2.27211e-06
 Reference value :  2.28301e-06
 Reference value :  2.30236e-06
 Reference value :  2.34108e-06
 Reference value :  2.41477e-06
 Reference value :  2.50000e-06
 Reference value :  2.50001e-06
 Reference value :  2.50003e-06
 Reference value :  2.50007e-06
 Reference value :  2.50010e-06
 Reference value :  2.50010e-06
 Reference value :  2.50011e-06
 Reference value :  2.50013e-06
 Reference value :  2.50016e-06
 Reference value :  2.50023e-06
 Reference value :  2.50036e-06
 Reference value :  2.50053e-06
 Reference value :  2.50087e-06
 Reference value :  2.50145e-06
 Reference value :  2.50221e-06
 Reference value :  2.50288e-06
 Reference value :  2.50355e-06
 Reference value :  2.50426e-06
 Reference value :  2.50524e-06
 Reference value :  2.50619e-06
 Reference value :  2.50717e-06
 Reference value :  2.50861e-06
 Reference value :  2.50999e-06
 Reference value :  2.51128e-06
 Reference value :  2.51267e-06
 Reference value :  2.51419e-06
 Reference value :  2.51586e-06
 Reference value :  2.51744e-06
 Reference value :  2.51962e-06
 Reference value :  2.52192e-06
 Reference value :  2.52609e-06
 Reference value :  2.53236e-06
 Reference value :  2.54332e-06
 Reference value :  2.55329e-06
 Reference value :  2.56072e-06
 Reference value :  2.56917e-06
 Reference value :  2.57951e-06
 Reference value :  2.59211e-06
 Reference value :  2.60254e-06
 Reference value :  2.61485e-06
 Reference value :  2.62998e-06
 Reference value :  2.65248e-06
 Reference value :  2.68463e-06
 Reference value :  2.73764e-06
 Reference value :  2.75010e-06
 Reference value :  2.75011e-06
 Reference value :  2.75013e-06
 Reference value :  2.75017e-06
 Reference value :  2.75020e-06
 Reference value :  2.75020e-06
 Reference value :  2.75020e-06
 Reference value :  2.75021e-06
 Reference value :  2.75021e-06
 Reference value :  2.75022e-06
 Reference value :  2.75025e-06
 Reference value :  2.75029e-06
 Reference value :  2.75039e-06
 Reference value :  2.75058e-06
 Reference value :  2.75092e-06
 Reference value :  2.75134e-06
 Reference value :  2.75187e-06
 Reference value :  2.75248e-06
 Reference value :  2.75323e-06
 Reference value :  2.75411e-06
 Reference value :  2.75530e-06
 Reference value :  2.75619e-06
 Reference value :  2.75714e-06
 Reference value :  2.75819e-06
 Reference value :  2.75933e-06
 Reference value :  2.76054e-06
 Reference value :  2.76184e-06
 Reference value :  2.76323e-06
 Reference value :  2.76544e-06
 Reference value :  2.76778e-06
 Reference value :  2.77133e-06
 Reference value :  2.77689e-06
 Reference value :  2.78803e-06
 Reference value :  2.81029e-06
 Reference value :  2.85483e-06
 Reference value :  2.94389e-06
 Reference value :  3.00000e-06
 Reference value :  3.00001e-06
 Reference value :  3.00003e-06
 Reference value :  3.00007e-06
 Reference value :  3.00010e-06
 Reference value :  3.00010e-06
 Reference value :  3.00011e-06
 Reference value :  3.00013e-06
 Reference value :  3.00016e-06
 Reference value :  3.00023e-06
 Reference value :  3.00036e-06
 Reference value :  3.00053e-06
 Reference value :  3.00087e-06
 Reference value :  3.00144e-06
 Reference value :  3.00221e-06
 Reference value :  3.00288e-06
 Reference value :  3.00356e-06
 Reference value :  3.00427e-06
 Reference value :  3.00514e-06
 Reference value :  3.00590e-06
 Reference value :  3.00673e-06
 Reference value :  3.00781e-06
 Reference value :  3.00879e-06
 Reference value :  3.00972e-06
 Reference value :  3.01076e-06
 Reference value :  3.01209e-06
 Reference value :  3.01366e-06
 Reference value :  3.01522e-06
 Reference value :  3.01693e-06
 Reference value :  3.01854e-06
 Reference value :  3.02024e-06
 Reference value :  3.02149e-06
 Reference value :  3.02267e-06
 Reference value :  3.02409e-06
 Reference value :  3.02556e-06
 Reference value :  3.02694e-06
 Reference value :  3.02865e-06
 Reference value :  3.03080e-06
 Reference value :  3.03314e-06
 Reference value :  3.03612e-06
 Reference value :  3.03933e-06
 Reference value :  3.04271e-06
 Reference value :  3.04511e-06
 Reference value :  3.04738e-06
 Reference value :  3.04980e-06
 Reference value :  3.05257e-06
 Reference value :  3.05728e-06
 Reference value :  3.06324e-06
 Reference value :  3.07167e-06
 Reference value :  3.08621e-06
 Reference value :  3.10663e-06
 Reference value :  3.13682e-06
 Reference value :  3.16480e-06
 Reference value :  3.19257e-06
 Reference value :  3.22596e-06
 Reference value :  3.25010e-06
 Reference value :  3.25011e-06
 Reference value :  3.25013e-06
 Reference value :  3.25017e-06
 Reference value :  3.25020e-06
 Reference value :  3.25020e-06
 Reference value :  3.25020e-06
 Reference value :  3.25021e-06
 Reference value :  3.25021e-06
 Reference value :  3.25022e-06
 Reference value :  3.25025e-06
 Reference value :  3.25030e-06
 Reference value :  3.25039e-06
 Reference value :  3.25059e-06
 Reference value :  3.25094e-06
 Reference value :  3.25136e-06
 Reference value :  3.25188e-06
 Reference value :  3.25249e-06
 Reference value :  3.25325e-06
 Reference value :  3.25413e-06
 Reference value :  3.25532e-06
 Reference value :  3.25622e-06
 Reference value :  3.25718e-06
 Reference value :  3.25826e-06
 Reference value :  3.25982e-06
 Reference value :  3.26128e-06
 Reference value :  3.26378e-06
 Reference value :  3.26679e-06
 Reference value :  3.27231e-06
 Reference value :  3.28336e-06
 Reference value :  3.30259e-06
 Reference value :  3.34106e-06
 Reference value :  3.41286e-06
 Reference value :  3.50000e-06
 Reference value :  3.50001e-06
 Reference value :  3.50003e-06
 Reference value :  3.50007e-06
 Reference value :  3.50010e-06
 Reference value :  3.50010e-06
 Reference value :  3.50011e-06
 Reference value :  3.50013e-06
 Reference value :  3.50016e-06
 Reference value :  3.50023e-06
 Reference value :  3.50036e-06
 Reference value :  3.50053e-06
 Reference value :  3.50087e-06
 Reference value :  3.50145e-06
 Reference value :  3.50221e-06
 Reference value :  3.50288e-06
 Reference value :  3.50356e-06
 Reference value :  3.50426e-06
 Reference value :  3.50524e-06
 Reference value :  3.50619e-06
 Reference value :  3.50717e-06
 Reference value :  3.50862e-06
 Reference value :  3.51000e-06
 Reference value :  3.51128e-06
 Reference value :  3.51264e-06
 Reference value :  3.51417e-06
 Reference value :  3.51583e-06
 Reference value :  3.51764e-06
 Reference value :  3.51966e-06
 Reference value :  3.52355e-06
 Reference value :  3.52955e-06
 Reference value :  3.54154e-06
 Reference value :  3.56423e-06
 Reference value :  3.60493e-06
 Reference value :  3.68543e-06
 Reference value :  3.75010e-06
 Reference value :  3.75011e-06
 Reference value :  3.75013e-06
 Reference value :  3.75017e-06
 Reference value :  3.75020e-06
 Reference value :  3.75020e-06
 Reference value :  3.75020e-06
 Reference value :  3.75021e-06
 Reference value :  3.75021e-06
 Reference value :  3.75022e-06
 Reference value :  3.75025e-06
 Reference value :  3.75030e-06
 Reference value :  3.75039e-06
 Reference value :  3.75059e-06
 Reference value :  3.75094e-06
 Reference value :  3.75136e-06
 Reference value :  3.75188e-06
 Reference value :  3.75249e-06
 Reference value :  3.75325e-06
 Reference value :  3.75413e-06
 Reference value :  3.75531e-06
 Reference value :  3.75623e-06
 Reference value :  3.75719e-06
 Reference value :  3.75822e-06
 Reference value :  3.75933e-06
 Reference value :  3.76056e-06
 Reference value :  3.76300e-06
 Reference value :  3.76566e-06
 Reference value :  3.77032e-06
 Reference value :  3.77880e-06
 Reference value :  3.79575e-06
 Reference value :  3.82936e-06
 Reference value :  3.89444e-06
 Reference value :  4.00000e-06
 Reference value :  4.00001e-06
 Reference value :  4.00003e-06
 Reference value :  4.00007e-06
 Reference value :  4.00010e-06
 Reference value :  4.00010e-06
 Reference value :  4.00011e-06
 Reference value :  4.00013e-06
 Reference value :  4.00016e-06
 Reference value :  4.00023e-06
 Reference value :  4.00036e-06
 Reference value :  4.00053e-06
 Reference value :  4.00087e-06
 Reference value :  4.00145e-06
 Reference value :  4.00221e-06
 Reference value :  4.00288e-06
 Reference value :  4.00356e-06
 Reference value :  4.00427e-06
 Reference value :  4.00525e-06
 Reference value :  4.00603e-06
 Reference value :  4.00685e-06
 Reference value :  4.00785e-06
 Reference value :  4.00893e-06
 Reference value :  4.00993e-06
 Reference value :  4.01098e-06
 Reference value :  4.01233e-06
 Reference value :  4.01406e-06
 Reference value :  4.01670e-06
 Reference value :  4.01868e-06
 Reference value :  4.02081e-06
 Reference value :  4.02231e-06
 Reference value :  4.02380e-06
 Reference value :  4.02519e-06
 Reference value :  4.02678e-06
 Reference value :  4.02842e-06
 Reference value :  4.03061e-06
 Reference value :  4.03286e-06
 Reference value :  4.03729e-06
 Reference value :  4.04380e-06
 Reference value :  4.05505e-06
 Reference value :  4.07121e-06
 Reference value :  4.10354e-06
 Reference value :  4.13424e-06
 Reference value :  4.16105e-06
 Reference value :  4.19540e-06
 Reference value :  4.23519e-06
 Reference value :  4.25010e-06
 Reference value :  4.25011e-06
 Reference value :  4.25013e-06
 Reference value :  4.25017e-06
 Reference value :  4.25020e-06
 Reference value :  4.25020e-06
 Reference value :  4.25020e-06
 Reference value :  4.25021e-06
 Reference value :  4.25021e-06
 Reference value :  4.25022e-06
 Reference value :  4.25025e-06
 Reference value :  4.25029e-06
 Reference value :  4.25039e-06
 Reference value :  4.25058e-06
 Reference value :  4.25092e-06
 Reference value :  4.25134e-06
 Reference value :  4.25187e-06
 Reference value :  4.25248e-06
 Reference value :  4.25323e-06
 Reference value :  4.25411e-06
 Reference value :  4.25530e-06
 Reference value :  4.25620e-06
 Reference value :  4.25714e-06
 Reference value :  4.25821e-06
 Reference value :  4.25962e-06
 Reference value :  4.26107e-06
 Reference value :  4.26353e-06
 Reference value :  4.26642e-06
 Reference value :  4.27145e-06
 Reference value :  4.28150e-06
 Reference value :  4.30029e-06
 Reference value :  4.33670e-06
 Reference value :  4.40821e-06
 Reference value :  4.50000e-06
 Reference value :  4.50001e-06
 Reference value :  4.50003e-06
 Reference value :  4.50007e-06
 Reference value :  4.50010e-06
 Reference value :  4.50010e-06
 Reference value :  4.50011e-06
 Reference value :  4.50013e-06
 Reference value :  4.50016e-06
 Reference value :  4.50023e-06
 Reference value :  4.50036e-06
 Reference value :  4.50053e-06
 Reference value :  4.50087e-06
 Reference value :  4.50145e-06
 Reference value :  4.50221e-06
 Reference value :  4.50288e-06
 Reference value :  4.50355e-06
 Reference value :  4.50426e-06
 Reference value :  4.50524e-06
 Reference value :  4.50619e-06
 Reference value :  4.50716e-06
 Reference value :  4.50861e-06
 Reference value :  4.50999e-06
 Reference value :  4.51124e-06
 Reference value :  4.51251e-06
 Reference value :  4.51379e-06
 Reference value :  4.51531e-06
 Reference value :  4.51695e-06
 Reference value :  4.51869e-06
 Reference value :  4.52215e-06
 Reference value :  4.52907e-06
 Reference value :  4.54075e-06
 Reference value :  4.56410e-06
 Reference value :  4.60789e-06
 Reference value :  4.68970e-06
 Reference value :  4.75010e-06
 Reference value :  4.75011e-06
 Reference value :  4.75013e-06
 Reference value :  4.75017e-06
 Reference value :  4.75020e-06
 Reference value :  4.75020e-06
 Reference value :  4.75020e-06
 Reference value :  4.75021e-06
 Reference value :  4.75021e-06
 Reference value :  4.75022e-06
 Reference value :  4.75025e-06
 Reference value :  4.75030e-06
 Reference value :  4.75039e-06
 Reference value :  4.75059e-06
 Reference value :  4.75093e-06
 Reference value :  4.75136e-06
 Reference value :  4.75188e-06
 Reference value :  4.75249e-06
 Reference value :  4.75325e-06
 Reference value :  4.75413e-06
 Reference value :  4.75531e-06
 Reference value :  4.75623e-06
 Reference value :  4.75719e-06
 Reference value :  4.75822e-06
 Reference value :  4.75933e-06
 Reference value :  4.76056e-06
 Reference value :  4.76299e-06
 Reference value :  4.76566e-06
 Reference value :  4.77031e-06
 Reference value :  4.77880e-06
 Reference value :  4.79576e-06
 Reference value :  4.82920e-06
 Reference value :  4.89469e-06
 Reference value :  5.00000e-06
 Reference value :  5.00001e-06
 Reference value :  5.00003e-06
 Reference value :  5.00007e-06
 Reference value :  5.00010e-06
 Reference value :  5.00010e-06
 Reference value :  5.00011e-06
 Reference value :  5.00013e-06
 Reference value :  5.00016e-06
 Reference value :  5.00023e-06
 Reference value :  5.00036e-06
 Reference value :  5.00053e-06
 Reference value :  5.00087e-06
 Reference value :  5.00145e-06
 Reference value :  5.00221e-06
 Reference value :  5.00288e-06
 Reference value :  5.00356e-06
 Reference value :  5.00427e-06
 Reference value :  5.00525e-06
 Reference value :  5.00603e-06
 Reference value :  5.00686e-06
 Reference value :  5.00785e-06
 Reference value :  5.00873e-06
 Reference value :  5.00970e-06
 Reference value :  5.01067e-06
 Reference value :  5.01191e-06
 Reference value :  5.01363e-06
 Reference value :  5.01583e-06
 Reference value :  5.01810e-06
 Reference value :  5.02039e-06
 Reference value :  5.02206e-06
 Reference value :  5.02362e-06
 Reference value :  5.02524e-06
 Reference value :  5.02694e-06
 Reference value :  5.02899e-06
 Reference value :  5.03087e-06
 Reference value :  5.03368e-06
 Reference value :  5.03795e-06
 Reference value :  5.04407e-06
 Reference value :  5.05268e-06
 Reference value :  5.06215e-06
 Reference value :  5.07246e-06
 Reference value :  5.08335e-06
 Reference value :  5.09271e-06
 Reference value :  5.10239e-06
 Reference value :  5.11279e-06
 Reference value :  5.12348e-06
 Reference value :  5.13635e-06
 Reference value :  5.16208e-06
 Reference value :  5.18313e-06
 Reference value :  5.19838e-06
 Reference value :  5.20945e-06
 Reference value :  5.22025e-06
 Reference value :  5.23246e-06
 Reference value :  5.24766e-06
 Reference value :  5.25010e-06
 Reference value :  5.25011e-06
 Reference value :  5.25013e-06
 Reference value :  5.25017e-06
 Reference value :  5.25020e-06
 Reference value :  5.25020e-06
 Reference value :  5.25020e-06
 Reference value :  5.25021e-06
 Reference value :  5.25021e-06
 Reference value :  5.25022e-06
 Reference value :  5.25025e-06
 Reference value :  5.25030e-06
 Reference value :  5.25039e-06
 Reference value :  5.25059e-06
 Reference value :  5.25094e-06
 Reference value :  5.25136e-06
 Reference value :  5.25188e-06
 Reference value :  5.25249e-06
 Reference value :  5.25325e-06
 Reference value :  5.25413e-06
 Reference value :  5.25532e-06
 Reference value :  5.25623e-06
 Reference value :  5.25719e-06
 Reference value :  5.25828e-06
 Reference value :  5.25983e-06
 Reference value :  5.26131e-06
 Reference value :  5.26380e-06
 Reference value :  5.26684e-06
 Reference value :  5.27240e-06
 Reference value :  5.28350e-06
 Reference value :  5.30266e-06
 Reference value :  5.34098e-06
 Reference value :  5.41193e-06
 Reference value :  5.50000e-06
 Reference value :  5.50001e-06
 Reference value :  5.50003e-06
 Reference value :  5.50007e-06
 Reference value :  5.50010e-06
 Reference value :  5.50010e-06
 Reference value :  5.50011e-06
 Reference value :  5.50013e-06
 Reference value :  5.50016e-06
 Reference value :  5.50023e-06
 Reference value :  5.50036e-06
 Reference value :  5.50053e-06
 Reference value :  5.50087e-06
 Reference value :  5.50145e-06
 Reference value :  5.50221e-06
 Reference value :  5.50288e-06
 Reference value :  5.50356e-06
 Reference value :  5.50426e-06
 Reference value :  5.50524e-06
 Reference value :  5.50619e-06
 Reference value :  5.50716e-06
 Reference value :  5.50861e-06
 Reference value :  5.50999e-06
 Reference value :  5.51123e-06
 Reference value :  5.51250e-06
 Reference value :  5.51373e-06
 Reference value :  5.51519e-06
 Reference value :  5.51672e-06
 Reference value :  5.51840e-06
 Reference value :  5.52174e-06
 Reference value :  5.52844e-06
 Reference value :  5.53977e-06
 Reference value :  5.56244e-06
 Reference value :  5.60505e-06
 Reference value :  5.68478e-06
 Reference value :  5.75010e-06
 Reference value :  5.75011e-06
 Reference value :  5.75013e-06
 Reference value :  5.75017e-06
 Reference value :  5.75020e-06
 Reference value :  5.75020e-06
 Reference value :  5.75020e-06
 Reference value :  5.75021e-06
 Reference value :  5.75021e-06
 Reference value :  5.75022e-06
 Reference value :  5.75025e-06
 Reference value :  5.75030e-06
 Reference value :  5.75039e-06
 Reference value :  5.75059e-06
 Reference value :  5.75094e-06
 Reference value :  5.75136e-06
 Reference value :  5.75188e-06
 Reference value :  5.75249e-06
 Reference value :  5.75326e-06
 Reference value :  5.75413e-06
 Reference value :  5.75531e-06
 Reference value :  5.75623e-06
 Reference value :  5.75719e-06
 Reference value :  5.75822e-06
 Reference value :  5.75933e-06
 Reference value :  5.76055e-06
 Reference value :  5.76299e-06
 Reference value :  5.76566e-06
 Reference value :  5.77031e-06
 Reference value :  5.77877e-06
 Reference value :  5.79568e-06
 Reference value :  5.82894e-06
 Reference value :  5.89428e-06
 Reference value :  6.00000e-06
 Reference value :  6.00001e-06
 Reference value :  6.00003e-06
 Reference value :  6.00007e-06
 Reference value :  6.00010e-06
 Reference value :  6.00010e-06
 Reference value :  6.00011e-06
 Reference value :  6.00013e-06
 Reference value :  6.00016e-06
 Reference value :  6.00023e-06
 Reference value :  6.00036e-06
 Reference value :  6.00053e-06
 Reference value :  6.00087e-06
 Reference value :  6.00145e-06
 Reference value :  6.00221e-06
 Reference value :  6.00288e-06
 Reference value :  6.00356e-06
 Reference value :  6.00427e-06
 Reference value :  6.00525e-06
 Reference value :  6.00603e-06
 Reference value :  6.00685e-06
 Reference value :  6.00785e-06
 Reference value :  6.00867e-06
 Reference value :  6.00958e-06
 Reference value :  6.01058e-06
 Reference value :  6.01175e-06
 Reference value :  6.01355e-06
 Reference value :  6.01581e-06
 Reference value :  6.01814e-06
 Reference value :  6.02063e-06
 Reference value :  6.02241e-06
 Reference value :  6.02409e-06
 Reference value :  6.02575e-06
 Reference value :  6.02755e-06
 Reference value :  6.02946e-06
 Reference value :  6.03183e-06
 Reference value :  6.03430e-06
 Reference value :  6.03918e-06
 Reference value :  6.04538e-06
 Reference value :  6.05145e-06
 Reference value :  6.06006e-06
 Reference value :  6.06815e-06
 Reference value :  6.07467e-06
 Reference value :  6.08171e-06
 Reference value :  6.08954e-06
 Reference value :  6.09584e-06
 Reference value :  6.10407e-06
 Reference value :  6.11350e-06
 Reference value :  6.12961e-06
 Reference value :  6.15732e-06
 Reference value :  6.20077e-06
 Reference value :  6.25010e-06
 Reference value :  6.25011e-06
 Reference value :  6.25013e-06
 Reference value :  6.25017e-06
 Reference value :  6.25020e-06
 Reference value :  6.25020e-06
 Reference value :  6.25020e-06
 Reference value :  6.25021e-06
 Reference value :  6.25021e-06
 Reference value :  6.25022e-06
 Reference value :  6.25025e-06
 Reference value :  6.25030e-06
 Reference value :  6.25039e-06
 Reference value :  6.25059e-06
 Reference value :  6.25094e-06
 Reference value :  6.25136e-06
 Reference value :  6.25188e-06
 Reference value :  6.25249e-06
 Reference value :  6.25326e-06
 Reference value :  6.25413e-06
 Reference value :  6.25526e-06
 Reference value :  6.25632e-06
 Reference value :  6.25728e-06
 Reference value :  6.25846e-06
 Reference value :  6.25996e-06
 Reference value :  6.26177e-06
 Reference value :  6.26407e-06
 Reference value :  6.26757e-06
 Reference value :  6.27329e-06
 Reference value :  6.28471e-06
 Reference value :  6.30451e-06
 Reference value :  6.34212e-06
 Reference value :  6.41212e-06
 Reference value :  6.50000e-06
 Reference value :  6.50001e-06
 Reference value :  6.50003e-06
 Reference value :  6.50007e-06
 Reference value :  6.50010e-06
 Reference value :  6.50010e-06
 Reference value :  6.50011e-06
 Reference value :  6.50013e-06
 Reference value :  6.50016e-06
 Reference value :  6.50023e-06
 Reference value :  6.50036e-06
 Reference value :  6.50053e-06
 Reference value :  6.50087e-06
 Reference value :  6.50145e-06
 Reference value :  6.50221e-06
 Reference value :  6.50284e-06
 Reference value :  6.50350e-06
 Reference value :  6.50419e-06
 Reference value :  6.50515e-06
 Reference value :  6.50611e-06
 Reference value :  6.50706e-06
 Reference value :  6.50854e-06
 Reference value :  6.50990e-06
 Reference value :  6.51126e-06
 Reference value :  6.51280e-06
 Reference value :  6.51419e-06
 Reference value :  6.51570e-06
 Reference value :  6.51721e-06
 Reference value :  6.51899e-06
 Reference value :  6.52253e-06
 Reference value :  6.52847e-06
 Reference value :  6.54034e-06
 Reference value :  6.56238e-06
 Reference value :  6.60359e-06
 Reference value :  6.68600e-06
 Reference value :  6.75010e-06
 Reference value :  6.75011e-06
 Reference value :  6.75013e-06
 Reference value :  6.75017e-06
 Reference value :  6.75020e-06
 Reference value :  6.75020e-06
 Reference value :  6.75020e-06
 Reference value :  6.75021e-06
 Reference value :  6.75021e-06
 Reference value :  6.75022e-06
 Reference value :  6.75025e-06
 Reference value :  6.75030e-06
 Reference value :  6.75039e-06
 Reference value :  6.75059e-06
 Reference value :  6.75094e-06
 Reference value :  6.75136e-06
 Reference value :  6.75188e-06
 Reference value :  6.75249e-06
 Reference value :  6.75326e-06
 Reference value :  6.75413e-06
 Reference value :  6.75531e-06
 Reference value :  6.75623e-06
 Reference value :  6.75720e-06
 Reference value :  6.75823e-06
 Reference value :  6.75934e-06
 Reference value :  6.76057e-06
 Reference value :  6.76184e-06
 Reference value :  6.76324e-06
 Reference value :  6.76536e-06
 Reference value :  6.76769e-06
 Reference value :  6.77130e-06
 Reference value :  6.77699e-06
 Reference value :  6.78838e-06
 Reference value :  6.81116e-06
 Reference value :  6.85577e-06
 Reference value :  6.94500e-06
 Reference value :  7.00000e-06
 Reference value :  7.00001e-06
 Reference value :  7.00003e-06
 Reference value :  7.00007e-06
 Reference value :  7.00010e-06
 Reference value :  7.00010e-06
 Reference value :  7.00011e-06
 Reference value :  7.00013e-06
 Reference value :  7.00016e-06
 Reference value :  7.00023e-06
 Reference value :  7.00036e-06
 Reference value :  7.00053e-06
 Reference value :  7.00087e-06
 Reference value :  7.00144e-06
 Reference value :  7.00221e-06
 Reference value :  7.00288e-06
 Reference value :  7.00356e-06
 Reference value :  7.00427e-06
 Reference value :  7.00513e-06
 Reference value :  7.00590e-06
 Reference value :  7.00672e-06
 Reference value :  7.00780e-06
 Reference value :  7.00878e-06
 Reference value :  7.00974e-06
 Reference value :  7.01079e-06
 Reference value :  7.01204e-06
 Reference value :  7.01385e-06
 Reference value :  7.01516e-06
 Reference value :  7.01664e-06
 Reference value :  7.01808e-06
 Reference value :  7.01975e-06
 Reference value :  7.02133e-06
 Reference value :  7.02246e-06
 Reference value :  7.02360e-06
 Reference value :  7.02476e-06
 Reference value :  7.02608e-06
 Reference value :  7.02746e-06
 Reference value :  7.02889e-06
 Reference value :  7.03023e-06
 Reference value :  7.03167e-06
 Reference value :  7.03314e-06
 Reference value :  7.03480e-06
 Reference value :  7.03677e-06
 Reference value :  7.03892e-06
 Reference value :  7.04323e-06
 Reference value :  7.05003e-06
 Reference value :  7.05785e-06
 Reference value :  7.06989e-06
 Reference value :  7.09130e-06
 Reference value :  7.13211e-06
 Reference value :  7.19981e-06
 Reference value :  7.25010e-06
 Reference value :  7.25011e-06
 Reference value :  7.25013e-06
 Reference value :  7.25017e-06
 Reference value :  7.25020e-06
 Reference value :  7.25020e-06
 Reference value :  7.25020e-06
 Reference value :  7.25021e-06
 Reference value :  7.25021e-06
 Reference value :  7.25022e-06
 Reference value :  7.25025e-06
 Reference value :  7.25030e-06
 Reference value :  7.25039e-06
 Reference value :  7.25059e-06
 Reference value :  7.25094e-06
 Reference value :  7.25136e-06
 Reference value :  7.25188e-06
 Reference value :  7.25249e-06
 Reference value :  7.25326e-06
 Reference value :  7.25414e-06
 Reference value :  7.25532e-06
 Reference value :  7.25625e-06
 Reference value :  7.25722e-06
 Reference value :  7.25830e-06
 Reference value :  7.25986e-06
 Reference value :  7.26139e-06
 Reference value :  7.26384e-06
 Reference value :  7.26695e-06
 Reference value :  7.27254e-06
 Reference value :  7.28372e-06
 Reference value :  7.30282e-06
 Reference value :  7.34091e-06
 Reference value :  7.41076e-06
 Reference value :  7.50000e-06
 Reference value :  7.50001e-06
 Reference value :  7.50003e-06
 Reference value :  7.50007e-06
 Reference value :  7.50010e-06
 Reference value :  7.50010e-06
 Reference value :  7.50011e-06
 Reference value :  7.50013e-06
 Reference value :  7.50016e-06
 Reference value :  7.50023e-06
 Reference value :  7.50036e-06
 Reference value :  7.50053e-06
 Reference value :  7.50087e-06
 Reference value :  7.50150e-06
 Reference value :  7.50218e-06
 Reference value :  7.50280e-06
 Reference value :  7.50345e-06
 Reference value :  7.50413e-06
 Reference value :  7.50512e-06
 Reference value :  7.50601e-06
 Reference value :  7.50701e-06
 Reference value :  7.50826e-06
 Reference value :  7.50973e-06
 Reference value :  7.51115e-06
 Reference value :  7.51283e-06
 Reference value :  7.51438e-06
 Reference value :  7.51607e-06
 Reference value :  7.51780e-06
 Reference value :  7.51969e-06
 Reference value :  7.52348e-06
 Reference value :  7.52973e-06
 Reference value :  7.54041e-06
 Reference value :  7.56136e-06
 Reference value :  7.59979e-06
 Reference value :  7.67141e-06
 Reference value :  7.75010e-06
 Reference value :  7.75011e-06
 Reference value :  7.75013e-06
 Reference value :  7.75017e-06
 Reference value :  7.75020e-06
 Reference value :  7.75020e-06
 Reference value :  7.75020e-06
 Reference value :  7.75021e-06
 Reference value :  7.75021e-06
 Reference value :  7.75022e-06
 Reference value :  7.75025e-06
 Reference value :  7.75030e-06
 Reference value :  7.75039e-06
 Reference value :  7.75059e-06
 Reference value :  7.75094e-06
 Reference value :  7.75136e-06
 Reference value :  7.75188e-06
 Reference value :  7.75249e-06
 Reference value :  7.75326e-06
 Reference value :  7.75414e-06
 Reference value :  7.75531e-06
 Reference value :  7.75626e-06
 Reference value :  7.75725e-06
 Reference value :  7.75827e-06
 Reference value :  7.75940e-06
 Reference value :  7.76065e-06
 Reference value :  7.76305e-06
 Reference value :  7.76585e-06
 Reference value :  7.77063e-06
 Reference value :  7.77977e-06
 Reference value :  7.79801e-06
 Reference value :  7.83136e-06
 Reference value :  7.89801e-06
 Reference value :  8.00000e-06
 Reference value :  8.00001e-06
 Reference value :  8.00003e-06
 Reference value :  8.00007e-06
 Reference value :  8.00010e-06
 Reference value :  8.00010e-06
 Reference value :  8.00011e-06
 Reference value :  8.00013e-06
 Reference value :  8.00016e-06
 Reference value :  8.00023e-06
 Reference value :  8.00036e-06
 Reference value :  8.00053e-06
 Reference value :  8.00087e-06
 Reference value :  8.00150e-06
 Reference value :  8.00218e-06
 Reference value :  8.00280e-06
 Reference value :  8.00345e-06
 Reference value :  8.00414e-06
 Reference value :  8.00499e-06
 Reference value :  8.00588e-06
 Reference value :  8.00669e-06
 Reference value :  8.00773e-06
 Reference value :  8.00871e-06
 Reference value :  8.00974e-06
 Reference value :  8.01072e-06
 Reference value :  8.01204e-06
 Reference value :  8.01371e-06
 Reference value :  8.01602e-06
 Reference value :  8.01872e-06
 Reference value :  8.02109e-06
 Reference value :  8.02353e-06
 Reference value :  8.02726e-06
 Reference value :  8.03094e-06
 Reference value :  8.03735e-06
 Reference value :  8.04601e-06
 Reference value :  8.05947e-06
 Reference value :  8.08158e-06
 Reference value :  8.11907e-06
 Reference value :  8.18116e-06
 Reference value :  8.25010e-06
 Reference value :  8.25011e-06
 Reference value :  8.25013e-06
 Reference value :  8.25017e-06
 Reference value :  8.25020e-06
 Reference value :  8.25020e-06
 Reference value :  8.25020e-06
 Reference value :  8.25021e-06
 Reference value :  8.25021e-06
 Reference value :  8.25022e-06
 Reference value :  8.25025e-06
 Reference value :  8.25030e-06
 Reference value :  8.25039e-06
 Reference value :  8.25059e-06
 Reference value :  8.25098e-06
 Reference value :  8.25139e-06
 Reference value :  8.25189e-06
 Reference value :  8.25250e-06
 Reference value :  8.25330e-06
 Reference value :  8.25418e-06
 Reference value :  8.25526e-06
 Reference value :  8.25645e-06
 Reference value :  8.25784e-06
 Reference value :  8.25942e-06
 Reference value :  8.26126e-06
 Reference value :  8.26401e-06
 Reference value :  8.26675e-06
 Reference value :  8.27191e-06
 Reference value :  8.28224e-06
 Reference value :  8.29904e-06
 Reference value :  8.33252e-06
 Reference value :  8.39231e-06
 Reference value :  8.50000e-06
 Reference value :  8.50001e-06
 Reference value :  8.50003e-06
 Reference value :  8.50007e-06
 Reference value :  8.50010e-06
 Reference value :  8.50010e-06
 Reference value :  8.50011e-06
 Reference value :  8.50013e-06
 Reference value :  8.50016e-06
 Reference value :  8.50023e-06
 Reference value :  8.50036e-06
 Reference value :  8.50063e-06
 Reference value :  8.50109e-06
 Reference value :  8.50179e-06
 Reference value :  8.50270e-06
 Reference value :  8.50336e-06
 Reference value :  8.50415e-06
 Reference value :  8.50499e-06
 Reference value :  8.50589e-06
 Reference value :  8.50698e-06
 Reference value :  8.50836e-06
 Reference value :  8.51007e-06
 Reference value :  8.51231e-06
 Reference value :  8.51410e-06
 Reference value :  8.51597e-06
 Reference value :  8.51836e-06
 Reference value :  8.52086e-06
 Reference value :  8.52366e-06
 Reference value :  8.52796e-06
 Reference value :  8.53312e-06
 Reference value :  8.53685e-06
 Reference value :  8.54018e-06
 Reference value :  8.54303e-06
 Reference value :  8.54549e-06
 Reference value :  8.54748e-06
 Reference value :  8.54953e-06
 Reference value :  8.55133e-06
 Reference value :  8.55330e-06
 Reference value :  8.55618e-06
 Reference value :  8.55899e-06
 Reference value :  8.56183e-06
 Reference value :  8.56703e-06
 Reference value :  8.57393e-06
 Reference value :  8.58164e-06
 Reference value :  8.59128e-06
 Reference value :  8.60488e-06
 Reference value :  8.61941e-06
 Reference value :  8.64152e-06
 Reference value :  8.66294e-06
 Reference value :  8.68959e-06
 Reference value :  8.72068e-06
 Reference value :  8.75010e-06
 Reference value :  8.75011e-06
 Reference value :  8.75013e-06
 Reference value :  8.75017e-06
 Reference value :  8.75020e-06
 Reference value :  8.75020e-06
 Reference value :  8.75020e-06
 Reference value :  8.75021e-06
 Reference value :  8.75021e-06
 Reference value :  8.75022e-06
 Reference value :  8.75025e-06
 Reference value :  8.75030e-06
 Reference value :  8.75039e-06
 Reference value :  8.75059e-06
 Reference value :  8.75098e-06
 Reference value :  8.75139e-06
 Reference value :  8.75191e-06
 Reference value :  8.75252e-06
 Reference value :  8.75332e-06
 Reference value :  8.75421e-06
 Reference value :  8.75542e-06
 Reference value :  8.75639e-06
 Reference value :  8.75741e-06
 Reference value :  8.75851e-06
 Reference value :  8.76008e-06
 Reference value :  8.76171e-06
 Reference value :  8.76409e-06
 Reference value :  8.76756e-06
 Reference value :  8.77390e-06
 Reference value :  8.78613e-06
 Reference value :  8.80665e-06
 Reference value :  8.84685e-06
 Reference value :  8.91843e-06
 Reference value :  9.00000e-06
 Reference value :  9.00001e-06
 Reference value :  9.00003e-06
 Reference value :  9.00007e-06
 Reference value :  9.00010e-06
 Reference value :  9.00010e-06
 Reference value :  9.00011e-06
 Reference value :  9.00013e-06
 Reference value :  9.00016e-06
 Reference value :  9.00023e-06
 Reference value :  9.00036e-06
 Reference value :  9.00054e-06
 Reference value :  9.00089e-06
 Reference value :  9.00151e-06
 Reference value :  9.00220e-06
 Reference value :  9.00282e-06
 Reference value :  9.00350e-06
 Reference value :  9.00421e-06
 Reference value :  9.00519e-06
 Reference value :  9.00613e-06
 Reference value :  9.00711e-06
 Reference value :  9.00846e-06
 Reference value :  9.00985e-06
 Reference value :  9.01176e-06
 Reference value :  9.01407e-06
 Reference value :  9.01592e-06
 Reference value :  9.01789e-06
 Reference value :  9.01994e-06
 Reference value :  9.02223e-06
 Reference value :  9.02479e-06
 Reference value :  9.02750e-06
 Reference value :  9.03248e-06
 Reference value :  9.04096e-06
 Reference value :  9.05049e-06
 Reference value :  9.06956e-06
 Reference value :  9.10770e-06
 Reference value :  9.17130e-06
 Reference value :  9.25010e-06
 Reference value :  9.25011e-06
 Reference value :  9.25013e-06
 Reference value :  9.25017e-06
 Reference value :  9.25020e-06
 Reference value :  9.25020e-06
 Reference value :  9.25020e-06
 Reference value :  9.25021e-06
 Reference value :  9.25021e-06
 Reference value :  9.25022e-06
 Reference value :  9.25025e-06
 Reference value :  9.25030e-06
 Reference value :  9.25039e-06
 Reference value :  9.25059e-06
 Reference value :  9.25098e-06
 Reference value :  9.25139e-06
 Reference value :  9.25191e-06
 Reference value :  9.25252e-06
 Reference value :  9.25332e-06
 Reference value :  9.25422e-06
 Reference value :  9.25541e-06
 Reference value :  9.25650e-06
 Reference value :  9.25751e-06
 Reference value :  9.25859e-06
 Reference value :  9.25983e-06
 Reference value :  9.26116e-06
 Reference value :  9.26359e-06
 Reference value :  9.26677e-06
 Reference value :  9.27237e-06
 Reference value :  9.28358e-06
 Reference value :  9.30277e-06
 Reference value :  9.34016e-06
 Reference value :  9.40866e-06
 Reference value :  9.50000e-06
 Reference value :  9.50001e-06
 Reference value :  9.50003e-06
 Reference value :  9.50007e-06
 Reference value :  9.50010e-06
 Reference value :  9.50010e-06
 Reference value :  9.50011e-06
 Reference value :  9.50013e-06
 Reference value :  9.50016e-06
 Reference value :  9.50023e-06
 Reference value :  9.50036e-06
 Reference value :  9.50054e-06
 Reference value :  9.50089e-06
 Reference value :  9.50151e-06
 Reference value :  9.50220e-06
 Reference value :  9.50282e-06
 Reference value :  9.50346e-06
 Reference value :  9.50415e-06
 Reference value :  9.50499e-06
 Reference value :  9.50587e-06
 Reference value :  9.50671e-06
 Reference value :  9.50777e-06
 Reference value :  9.50887e-06
 Reference value :  9.50996e-06
 Reference value :  9.51099e-06
 Reference value :  9.51243e-06
 Reference value :  9.51411e-06
 Reference value :  9.51683e-06
 Reference value :  9.51884e-06
 Reference value :  9.52100e-06
 Reference value :  9.52260e-06
 Reference value :  9.52413e-06
 Reference value :  9.52557e-06
 Reference value :  9.52713e-06
 Reference value :  9.52883e-06
 Reference value :  9.53109e-06
 Reference value :  9.53342e-06
 Reference value :  9.53797e-06
 Reference value :  9.54428e-06
 Reference value :  9.55518e-06
 Reference value :  9.57331e-06
 Reference value :  9.59132e-06
 Reference value :  9.60524e-06
 Reference value :  9.61610e-06
 Reference value :  9.62669e-06
 Reference value :  9.63515e-06
 Reference value :  9.64124e-06
 Reference value :  9.64816e-06
 Reference value :  9.65837e-06
 Reference value :  9.66903e-06
 Reference value :  9.68528e-06
 Reference value :  9.70707e-06
 Reference value :  9.74044e-06
 Reference value :  9.75010e-06
 Reference value :  9.75011e-06
 Reference value :  9.75013e-06
 Reference value :  9.75017e-06
 Reference value :  9.75020e-06
 Reference value :  9.75020e-06
 Reference value :  9.75020e-06
 Reference value :  9.75021e-06
 Reference value :  9.75021e-06
 Reference value :  9.75022e-06
 Reference value :  9.75025e-06
 Reference value :  9.75030e-06
 Reference value :  9.75039e-06
 Reference value :  9.75059e-06
 Reference value :  9.75094e-06
 Reference value :  9.75136e-06
 Reference value :  9.75188e-06
 Reference value :  9.75249e-06
 Reference value :  9.75326e-06
 Reference value :  9.75414e-06
 Reference value :  9.75527e-06
 Reference value :  9.75622e-06
 Reference value :  9.75720e-06
 Reference value :  9.75830e-06
 Reference value :  9.75985e-06
 Reference value :  9.76148e-06
 Reference value :  9.76387e-06
 Reference value :  9.76706e-06
 Reference value :  9.77254e-06
 Reference value :  9.78352e-06
 Reference value :  9.80247e-06
 Reference value :  9.83951e-06
 Reference value :  9.90992e-06
 Reference value :  1.00000e-05
 Reference value :  1.00000e-05
 Reference value :  1.00000e-05
 Reference value :  1.00001e-05
 Reference value :  1.00001e-05
 Reference value :  1.00001e-05
 Reference value :  1.00001e-05
 Reference value :  1.00001e-05
 Reference value :  1.00002e-05
 Reference value :  1.00002e-05
 Reference value :  1.00004e-05
 Reference value :  1.00005e-05
 Reference value :  1.00009e-05
 Reference value :  1.00014e-05
 Reference value :  1.00022e-05
 Reference value :  1.00028e-05
 Reference value :  1.00035e-05
 Reference value :  1.00042e-05
 Reference value :  1.00052e-05
 Reference value :  1.00061e-05
 Reference value :  1.00071e-05
 Reference value :  1.00086e-05
 Reference value :  1.00099e-05
 Reference value :  1.00113e-05
 Reference value :  1.00129e-05
 Reference value :  1.00146e-05
 Reference value :  1.00163e-05
 Reference value :  1.00181e-05
 Reference value :  1.00205e-05
 Reference value :  1.00237e-05
 Reference value :  1.00292e-05
 Reference value :  1.00383e-05
 Reference value :  1.00549e-05
 Reference value :  1.00855e-05
 Reference value :  1.01423e-05
 Reference value :  1.02501e-05
 Reference value :  1.02501e-05
 Reference value :  1.02501e-05
 Reference value :  1.02502e-05
 Reference value :  1.02502e-05
 Reference value :  1.02502e-05
 Reference value :  1.02502e-05
 Reference value :  1.02502e-05
 Reference value :  1.02502e-05
 Reference value :  1.02502e-05
 Reference value :  1.02502e-05
 Reference value :  1.02503e-05
 Reference value :  1.02504e-05
 Reference value :  1.02506e-05
 Reference value :  1.02509e-05
 Reference value :  1.02514e-05
 Reference value :  1.02519e-05
 Reference value :  1.02525e-05
 Reference value :  1.02533e-05
 Reference value :  1.02541e-05
 Reference value :  1.02553e-05
 Reference value :  1.02562e-05
 Reference value :  1.02572e-05
 Reference value :  1.02582e-05
 Reference value :  1.02593e-05
 Reference value :  1.02606e-05
 Reference value :  1.02618e-05
 Reference value :  1.02632e-05
 Reference value :  1.02654e-05
 Reference value :  1.02677e-05
 Reference value :  1.02713e-05
 Reference value :  1.02770e-05
 Reference value :  1.02883e-05
 Reference value :  1.03110e-05
 Reference value :  1.03563e-05
 Reference value :  1.04470e-05
 Reference value :  1.05000e-05
 Reference value :  1.05000e-05
 Reference value :  1.05000e-05
 Reference value :  1.05001e-05
 Reference value :  1.05001e-05
 Reference value :  1.05001e-05
 Reference value :  1.05001e-05
 Reference value :  1.05001e-05
 Reference value :  1.05002e-05
 Reference value :  1.05002e-05
 Reference value :  1.05004e-05
 Reference value :  1.05005e-05
 Reference value :  1.05009e-05
 Reference value :  1.05014e-05
 Reference value :  1.05022e-05
 Reference value :  1.05029e-05
 Reference value :  1.05036e-05
 Reference value :  1.05043e-05
 Reference value :  1.05051e-05
 Reference value :  1.05059e-05
 Reference value :  1.05067e-05
 Reference value :  1.05078e-05
 Reference value :  1.05088e-05
 Reference value :  1.05097e-05
 Reference value :  1.05108e-05
 Reference value :  1.05121e-05
 Reference value :  1.05137e-05
 Reference value :  1.05158e-05
 Reference value :  1.05173e-05
 Reference value :  1.05191e-05
 Reference value :  1.05208e-05
 Reference value :  1.05222e-05
 Reference value :  1.05235e-05
 Reference value :  1.05249e-05
 Reference value :  1.05263e-05
 Reference value :  1.05280e-05
 Reference value :  1.05297e-05
 Reference value :  1.05322e-05
 Reference value :  1.05349e-05
 Reference value :  1.05401e-05
 Reference value :  1.05486e-05
 Reference value :  1.05621e-05
 Reference value :  1.05881e-05
 Reference value :  1.06155e-05
 Reference value :  1.06416e-05
 Reference value :  1.06600e-05
 Reference value :  1.06755e-05
 Reference value :  1.06916e-05
 Reference value :  1.07088e-05
 Reference value :  1.07434e-05
 Reference value :  1.07501e-05
 Reference value :  1.07501e-05
 Reference value :  1.07501e-05
 Reference value :  1.07502e-05
 Reference value :  1.07502e-05
 Reference value :  1.07502e-05
 Reference value :  1.07502e-05
 Reference value :  1.07502e-05
 Reference value :  1.07502e-05
 Reference value :  1.07502e-05
 Reference value :  1.07502e-05
 Reference value :  1.07503e-05
 Reference value :  1.07504e-05
 Reference value :  1.07506e-05
 Reference value :  1.07509e-05
 Reference value :  1.07513e-05
 Reference value :  1.07519e-05
 Reference value :  1.07525e-05
 Reference value :  1.07532e-05
 Reference value :  1.07541e-05
 Reference value :  1.07553e-05
 Reference value :  1.07562e-05
 Reference value :  1.07571e-05
 Reference value :  1.07582e-05
 Reference value :  1.07598e-05
 Reference value :  1.07612e-05
 Reference value :  1.07637e-05
 Reference value :  1.07667e-05
 Reference value :  1.07721e-05
 Reference value :  1.07830e-05
 Reference value :  1.08020e-05
 Reference value :  1.08399e-05
 Reference value :  1.09131e-05
 Reference value :  1.10000e-05
 Reference value :  1.10000e-05
 Reference value :  1.10000e-05
 Reference value :  1.10001e-05
 Reference value :  1.10001e-05
 Reference value :  1.10001e-05
 Reference value :  1.10001e-05
 Reference value :  1.10001e-05
 Reference value :  1.10002e-05
 Reference value :  1.10002e-05
 Reference value :  1.10004e-05
 Reference value :  1.10005e-05
 Reference value :  1.10009e-05
 Reference value :  1.10014e-05
 Reference value :  1.10022e-05
 Reference value :  1.10029e-05
 Reference value :  1.10036e-05
 Reference value :  1.10043e-05
 Reference value :  1.10052e-05
 Reference value :  1.10062e-05
 Reference value :  1.10072e-05
 Reference value :  1.10086e-05
 Reference value :  1.10100e-05
 Reference value :  1.10113e-05
 Reference value :  1.10127e-05
 Reference value :  1.10142e-05
 Reference value :  1.10159e-05
 Reference value :  1.10174e-05
 Reference value :  1.10196e-05
 Reference value :  1.10219e-05
 Reference value :  1.10260e-05
 Reference value :  1.10322e-05
 Reference value :  1.10429e-05
 Reference value :  1.10534e-05
 Reference value :  1.10610e-05
 Reference value :  1.10695e-05
 Reference value :  1.10804e-05
 Reference value :  1.10923e-05
 Reference value :  1.11020e-05
 Reference value :  1.11147e-05
 Reference value :  1.11305e-05
 Reference value :  1.11552e-05
 Reference value :  1.11919e-05
 Reference value :  1.12473e-05
 Reference value :  1.12501e-05
 Reference value :  1.12501e-05
 Reference value :  1.12501e-05
 Reference value :  1.12502e-05
 Reference value :  1.12502e-05
 Reference value :  1.12502e-05
 Reference value :  1.12502e-05
 Reference value :  1.12502e-05
 Reference value :  1.12502e-05
 Reference value :  1.12502e-05
 Reference value :  1.12502e-05
 Reference value :  1.12503e-05
 Reference value :  1.12504e-05
 Reference value :  1.12506e-05
 Reference value :  1.12509e-05
 Reference value :  1.12513e-05
 Reference value :  1.12519e-05
 Reference value :  1.12525e-05
 Reference value :  1.12532e-05
 Reference value :  1.12541e-05
 Reference value :  1.12553e-05
 Reference value :  1.12562e-05
 Reference value :  1.12571e-05
 Reference value :  1.12582e-05
 Reference value :  1.12593e-05
 Reference value :  1.12605e-05
 Reference value :  1.12618e-05
 Reference value :  1.12632e-05
 Reference value :  1.12654e-05
 Reference value :  1.12678e-05
 Reference value :  1.12713e-05
 Reference value :  1.12769e-05
 Reference value :  1.12880e-05
 Reference value :  1.13103e-05
 Reference value :  1.13548e-05
 Reference value :  1.14439e-05
 Reference value :  1.15000e-05
 Reference value :  1.15000e-05
 Reference value :  1.15000e-05
 Reference value :  1.15001e-05
 Reference value :  1.15001e-05
 Reference value :  1.15001e-05
 Reference value :  1.15001e-05
 Reference value :  1.15001e-05
 Reference value :  1.15002e-05
 Reference value :  1.15002e-05
 Reference value :  1.15004e-05
 Reference value :  1.15005e-05
 Reference value :  1.15009e-05
 Reference value :  1.15014e-05
 Reference value :  1.15022e-05
 Reference value :  1.15029e-05
 Reference value :  1.15036e-05
 Reference value :  1.15043e-05
 Reference value :  1.15051e-05
 Reference value :  1.15059e-05
 Reference value :  1.15067e-05
 Reference value :  1.15078e-05
 Reference value :  1.15088e-05
 Reference value :  1.15097e-05
 Reference value :  1.15108e-05
 Reference value :  1.15121e-05
 Reference value :  1.15137e-05
 Reference value :  1.15152e-05
 Reference value :  1.15169e-05
 Reference value :  1.15185e-05
 Reference value :  1.15202e-05
 Reference value :  1.15215e-05
 Reference value :  1.15226e-05
 Reference value :  1.15241e-05
 Reference value :  1.15256e-05
 Reference value :  1.15269e-05
 Reference value :  1.15287e-05
 Reference value :  1.15308e-05
 Reference value :  1.15331e-05
 Reference value :  1.15361e-05
 Reference value :  1.15393e-05
 Reference value :  1.15427e-05
 Reference value :  1.15452e-05
 Reference value :  1.15474e-05
 Reference value :  1.15499e-05
 Reference value :  1.15527e-05
 Reference value :  1.15573e-05
 Reference value :  1.15635e-05
 Reference value :  1.15719e-05
 Reference value :  1.15871e-05
 Reference value :  1.16082e-05
 Reference value :  1.16368e-05
 Reference value :  1.16644e-05
 Reference value :  1.16921e-05
 Reference value :  1.17257e-05
 Reference value :  1.17501e-05
 Reference value :  1.17501e-05
 Reference value :  1.17501e-05
 Reference value :  1.17502e-05
 Reference value :  1.17502e-05
 Reference value :  1.17502e-05
 Reference value :  1.17502e-05
 Reference value :  1.17502e-05
 Reference value :  1.17502e-05
 Reference value :  1.17502e-05
 Reference value :  1.17502e-05
 Reference value :  1.17503e-05
 Reference value :  1.17504e-05
 Reference value :  1.17506e-05
 Reference value :  1.17509e-05
 Reference value :  1.17514e-05
 Reference value :  1.17519e-05
 Reference value :  1.17525e-05
 Reference value :  1.17533e-05
 Reference value :  1.17541e-05
 Reference value :  1.17553e-05
 Reference value :  1.17562e-05
 Reference value :  1.17572e-05
 Reference value :  1.17583e-05
 Reference value :  1.17598e-05
 Reference value :  1.17613e-05
 Reference value :  1.17638e-05
 Reference value :  1.17668e-05
 Reference value :  1.17723e-05
 Reference value :  1.17834e-05
 Reference value :  1.18023e-05
 Reference value :  1.18403e-05
 Reference value :  1.19105e-05
 Reference value :  1.20000e-05
 Reference value :  1.20000e-05
 Reference value :  1.20000e-05
 Reference value :  1.20001e-05
 Reference value :  1.20001e-05
 Reference value :  1.20001e-05
 Reference value :  1.20001e-05
 Reference value :  1.20001e-05
 Reference value :  1.20002e-05
 Reference value :  1.20002e-05
 Reference value :  1.20004e-05
 Reference value :  1.20005e-05
 Reference value :  1.20009e-05
 Reference value :  1.20014e-05
 Reference value :  1.20022e-05
 Reference value :  1.20029e-05
 Reference value :  1.20036e-05
 Reference value :  1.20043e-05
 Reference value :  1.20052e-05
 Reference value :  1.20062e-05
 Reference value :  1.20072e-05
 Reference value :  1.20086e-05
 Reference value :  1.20100e-05
 Reference value :  1.20113e-05
 Reference value :  1.20126e-05
 Reference value :  1.20142e-05
 Reference value :  1.20158e-05
 Reference value :  1.20176e-05
 Reference value :  1.20197e-05
 Reference value :  1.20235e-05
 Reference value :  1.20295e-05
 Reference value :  1.20414e-05
 Reference value :  1.20639e-05
 Reference value :  1.21044e-05
 Reference value :  1.21839e-05
 Reference value :  1.22501e-05
 Reference value :  1.22501e-05
 Reference value :  1.22501e-05
 Reference value :  1.22502e-05
 Reference value :  1.22502e-05
 Reference value :  1.22502e-05
 Reference value :  1.22502e-05
 Reference value :  1.22502e-05
 Reference value :  1.22502e-05
 Reference value :  1.22502e-05
 Reference value :  1.22502e-05
 Reference value :  1.22503e-05
 Reference value :  1.22504e-05
 Reference value :  1.22506e-05
 Reference value :  1.22509e-05
 Reference value :  1.22514e-05
 Reference value :  1.22519e-05
 Reference value :  1.22525e-05
 Reference value :  1.22533e-05
 Reference value :  1.22541e-05
 Reference value :  1.22553e-05
 Reference value :  1.22562e-05
 Reference value :  1.22572e-05
 Reference value :  1.22582e-05
 Reference value :  1.22593e-05
 Reference value :  1.22606e-05
 Reference value :  1.22630e-05
 Reference value :  1.22657e-05
 Reference value :  1.22703e-05
 Reference value :  1.22788e-05
 Reference value :  1.22957e-05
 Reference value :  1.23289e-05
 Reference value :  1.23947e-05
 Reference value :  1.25000e-05
 Reference value :  1.25000e-05
 Reference value :  1.25000e-05
 Reference value :  1.25001e-05
 Reference value :  1.25001e-05
 Reference value :  1.25001e-05
 Reference value :  1.25001e-05
 Reference value :  1.25001e-05
 Reference value :  1.25002e-05
 Reference value :  1.25002e-05
 Reference value :  1.25004e-05
 Reference value :  1.25005e-05
 Reference value :  1.25009e-05
 Reference value :  1.25014e-05
 Reference value :  1.25022e-05
 Reference value :  1.25029e-05
 Reference value :  1.25036e-05
 Reference value :  1.25043e-05
 Reference value :  1.25052e-05
 Reference value :  1.25060e-05
 Reference value :  1.25069e-05
 Reference value :  1.25078e-05
 Reference value :  1.25089e-05
 Reference value :  1.25099e-05
 Reference value :  1.25110e-05
 Reference value :  1.25123e-05
 Reference value :  1.25141e-05
 Reference value :  1.25167e-05
 Reference value :  1.25187e-05
 Reference value :  1.25208e-05
 Reference value :  1.25223e-05
 Reference value :  1.25238e-05
 Reference value :  1.25252e-05
 Reference value :  1.25268e-05
 Reference value :  1.25284e-05
 Reference value :  1.25306e-05
 Reference value :  1.25329e-05
 Reference value :  1.25373e-05
 Reference value :  1.25438e-05
 Reference value :  1.25551e-05
 Reference value :  1.25712e-05
 Reference value :  1.26035e-05
 Reference value :  1.26343e-05
 Reference value :  1.26611e-05
 Reference value :  1.26954e-05
 Reference value :  1.27352e-05
 Reference value :  1.27501e-05
 Reference value :  1.27501e-05
 Reference value :  1.27501e-05
 Reference value :  1.27502e-05
 Reference value :  1.27502e-05
 Reference value :  1.27502e-05
 Reference value :  1.27502e-05
 Reference value :  1.27502e-05
 Reference value :  1.27502e-05
 Reference value :  1.27502e-05
 Reference value :  1.27502e-05
 Reference value :  1.27503e-05
 Reference value :  1.27504e-05
 Reference value :  1.27506e-05
 Reference value :  1.27509e-05
 Reference value :  1.27513e-05
 Reference value :  1.27519e-05
 Reference value :  1.27525e-05
 Reference value :  1.27532e-05
 Reference value :  1.27541e-05
 Reference value :  1.27553e-05
 Reference value :  1.27562e-05
 Reference value :  1.27571e-05
 Reference value :  1.27582e-05
 Reference value :  1.27596e-05
 Reference value :  1.27611e-05
 Reference value :  1.27635e-05
 Reference value :  1.27664e-05
 Reference value :  1.27715e-05
 Reference value :  1.27815e-05
 Reference value :  1.28001e-05
 Reference value :  1.28362e-05
 Reference value :  1.29074e-05
 Reference value :  1.30000e-05
 Reference value :  1.30000e-05
 Reference value :  1.30000e-05
 Reference value :  1.30001e-05
 Reference value :  1.30001e-05
 Reference value :  1.30001e-05
 Reference value :  1.30001e-05
 Reference value :  1.30001e-05
 Reference value :  1.30002e-05
 Reference value :  1.30002e-05
 Reference value :  1.30004e-05
 Reference value :  1.30005e-05
 Reference value :  1.30009e-05
 Reference value :  1.30014e-05
 Reference value :  1.30022e-05
 Reference value :  1.30029e-05
 Reference value :  1.30036e-05
 Reference value :  1.30043e-05
 Reference value :  1.30052e-05
 Reference value :  1.30062e-05
 Reference value :  1.30072e-05
 Reference value :  1.30086e-05
 Reference value :  1.30100e-05
 Reference value :  1.30112e-05
 Reference value :  1.30125e-05
 Reference value :  1.30138e-05
 Reference value :  1.30153e-05
 Reference value :  1.30170e-05
 Reference value :  1.30187e-05
 Reference value :  1.30221e-05
 Reference value :  1.30290e-05
 Reference value :  1.30407e-05
 Reference value :  1.30640e-05
 Reference value :  1.31078e-05
 Reference value :  1.31895e-05
 Reference value :  1.32501e-05
 Reference value :  1.32501e-05
 Reference value :  1.32501e-05
 Reference value :  1.32502e-05
 Reference value :  1.32502e-05
 Reference value :  1.32502e-05
 Reference value :  1.32502e-05
 Reference value :  1.32502e-05
 Reference value :  1.32502e-05
 Reference value :  1.32502e-05
 Reference value :  1.32502e-05
 Reference value :  1.32503e-05
 Reference value :  1.32504e-05
 Reference value :  1.32506e-05
 Reference value :  1.32509e-05
 Reference value :  1.32514e-05
 Reference value :  1.32519e-05
 Reference value :  1.32525e-05
 Reference value :  1.32533e-05
 Reference value :  1.32541e-05
 Reference value :  1.32553e-05
 Reference value :  1.32562e-05
 Reference value :  1.32572e-05
 Reference value :  1.32582e-05
 Reference value :  1.32593e-05
 Reference value :  1.32606e-05
 Reference value :  1.32630e-05
 Reference value :  1.32657e-05
 Reference value :  1.32703e-05
 Reference value :  1.32788e-05
 Reference value :  1.32957e-05
 Reference value :  1.33288e-05
 Reference value :  1.33943e-05
 Reference value :  1.35000e-05
 Reference value :  1.35000e-05
 Reference value :  1.35000e-05
 Reference value :  1.35001e-05
 Reference value :  1.35001e-05
 Reference value :  1.35001e-05
 Reference value :  1.35001e-05
 Reference value :  1.35001e-05
 Reference value :  1.35002e-05
 Reference value :  1.35002e-05
 Reference value :  1.35004e-05
 Reference value :  1.35005e-05
 Reference value :  1.35009e-05
 Reference value :  1.35014e-05
 Reference value :  1.35022e-05
 Reference value :  1.35029e-05
 Reference value :  1.35036e-05
 Reference value :  1.35043e-05
 Reference value :  1.35053e-05
 Reference value :  1.35060e-05
 Reference value :  1.35069e-05
 Reference value :  1.35079e-05
 Reference value :  1.35087e-05
 Reference value :  1.35097e-05
 Reference value :  1.35107e-05
 Reference value :  1.35119e-05
 Reference value :  1.35136e-05
 Reference value :  1.35158e-05
 Reference value :  1.35181e-05
 Reference value :  1.35204e-05
 Reference value :  1.35221e-05
 Reference value :  1.35236e-05
 Reference value :  1.35252e-05
 Reference value :  1.35269e-05
 Reference value :  1.35290e-05
 Reference value :  1.35309e-05
 Reference value :  1.35337e-05
 Reference value :  1.35380e-05
 Reference value :  1.35441e-05
 Reference value :  1.35527e-05
 Reference value :  1.35621e-05
 Reference value :  1.35724e-05
 Reference value :  1.35833e-05
 Reference value :  1.35926e-05
 Reference value :  1.36022e-05
 Reference value :  1.36126e-05
 Reference value :  1.36233e-05
 Reference value :  1.36360e-05
 Reference value :  1.36615e-05
 Reference value :  1.36825e-05
 Reference value :  1.36977e-05
 Reference value :  1.37089e-05
 Reference value :  1.37195e-05
 Reference value :  1.37322e-05
 Reference value :  1.37464e-05
 Reference value :  1.37501e-05
 Reference value :  1.37501e-05
 Reference value :  1.37501e-05
 Reference value :  1.37502e-05
 Reference value :  1.37502e-05
 Reference value :  1.37502e-05
 Reference value :  1.37502e-05
 Reference value :  1.37502e-05
 Reference value :  1.37502e-05
 Reference value :  1.37502e-05
 Reference value :  1.37502e-05
 Reference value :  1.37503e-05
 Reference value :  1.37504e-05
 Reference value :  1.37506e-05
 Reference value :  1.37509e-05
 Reference value :  1.37514e-05
 Reference value :  1.37519e-05
 Reference value :  1.37525e-05
 Reference value :  1.37533e-05
 Reference value :  1.37541e-05
 Reference value :  1.37553e-05
 Reference value :  1.37562e-05
 Reference value :  1.37572e-05
 Reference value :  1.37583e-05
 Reference value :  1.37598e-05
 Reference value :  1.37613e-05
 Reference value :  1.37638e-05
 Reference value :  1.37668e-05
 Reference value :  1.37724e-05
 Reference value :  1.37835e-05
 Reference value :  1.38025e-05
 Reference value :  1.38406e-05
 Reference value :  1.39109e-05
 Reference value :  1.40000e-05
 Reference value :  1.40000e-05
 Reference value :  1.40000e-05
 Reference value :  1.40001e-05
 Reference value :  1.40001e-05
 Reference value :  1.40001e-05
 Reference value :  1.40001e-05
 Reference value :  1.40001e-05
 Reference value :  1.40002e-05
 Reference value :  1.40002e-05
 Reference value :  1.40004e-05
 Reference value :  1.40005e-05
 Reference value :  1.40009e-05
 Reference value :  1.40014e-05
 Reference value :  1.40022e-05
 Reference value :  1.40029e-05
 Reference value :  1.40036e-05
 Reference value :  1.40043e-05
 Reference value :  1.40052e-05
 Reference value :  1.40062e-05
 Reference value :  1.40072e-05
 Reference value :  1.40086e-05
 Reference value :  1.40100e-05
 Reference value :  1.40112e-05
 Reference value :  1.40125e-05
 Reference value :  1.40137e-05
 Reference value :  1.40152e-05
 Reference value :  1.40167e-05
 Reference value :  1.40184e-05
 Reference value :  1.40217e-05
 Reference value :  1.40284e-05
 Reference value :  1.40398e-05
 Reference value :  1.40624e-05
 Reference value :  1.41051e-05
 Reference value :  1.41849e-05
 Reference value :  1.42501e-05
 Reference value :  1.42501e-05
 Reference value :  1.42501e-05
 Reference value :  1.42502e-05
 Reference value :  1.42502e-05
 Reference value :  1.42502e-05
 Reference value :  1.42502e-05
 Reference value :  1.42502e-05
 Reference value :  1.42502e-05
 Reference value :  1.42502e-05
 Reference value :  1.42502e-05
 Reference value :  1.42503e-05
 Reference value :  1.42504e-05
 Reference value :  1.42506e-05
 Reference value :  1.42509e-05
 Reference value :  1.42514e-05
 Reference value :  1.42519e-05
 Reference value :  1.42525e-05
 Reference value :  1.42533e-05
 Reference value :  1.42541e-05
 Reference value :  1.42553e-05
 Reference value :  1.42562e-05
 Reference value :  1.42572e-05
 Reference value :  1.42582e-05
 Reference value :  1.42593e-05
 Reference value :  1.42606e-05
 Reference value :  1.42630e-05
 Reference value :  1.42657e-05
 Reference value :  1.42703e-05
 Reference value :  1.42788e-05
 Reference value :  1.42957e-05
 Reference value :  1.43287e-05
 Reference value :  1.43946e-05
 Reference value :  1.45000e-05
 Reference value :  1.45000e-05
 Reference value :  1.45000e-05
 Reference value :  1.45001e-05
 Reference value :  1.45001e-05
 Reference value :  1.45001e-05
 Reference value :  1.45001e-05
 Reference value :  1.45001e-05
 Reference value :  1.45002e-05
 Reference value :  1.45002e-05
 Reference value :  1.45004e-05
 Reference value :  1.45005e-05
 Reference value :  1.45009e-05
 Reference value :  1.45014e-05
 Reference value :  1.45022e-05
 Reference value :  1.45029e-05
 Reference value :  1.45036e-05
 Reference value :  1.45043e-05
 Reference value :  1.45053e-05
 Reference value :  1.45060e-05
 Reference value :  1.45069e-05
 Reference value :  1.45078e-05
 Reference value :  1.45087e-05
 Reference value :  1.45096e-05
 Reference value :  1.45106e-05
 Reference value :  1.45117e-05
 Reference value :  1.45135e-05
 Reference value :  1.45158e-05
 Reference value :  1.45181e-05
 Reference value :  1.45206e-05
 Reference value :  1.45224e-05
 Reference value :  1.45241e-05
 Reference value :  1.45257e-05
 Reference value :  1.45275e-05
 Reference value :  1.45295e-05
 Reference value :  1.45318e-05
 Reference value :  1.45343e-05
 Reference value :  1.45392e-05
 Reference value :  1.45453e-05
 Reference value :  1.45514e-05
 Reference value :  1.45600e-05
 Reference value :  1.45681e-05
 Reference value :  1.45744e-05
 Reference value :  1.45813e-05
 Reference value :  1.45893e-05
 Reference value :  1.45959e-05
 Reference value :  1.46040e-05
 Reference value :  1.46132e-05
 Reference value :  1.46286e-05
 Reference value :  1.46541e-05
 Reference value :  1.46930e-05
 Reference value :  1.47501e-05
 Reference value :  1.47501e-05
 Reference value :  1.47501e-05
 Reference value :  1.47502e-05
 Reference value :  1.47502e-05
 Reference value :  1.47502e-05
 Reference value :  1.47502e-05
 Reference value :  1.47502e-05
 Reference value :  1.47502e-05
 Reference value :  1.47502e-05
 Reference value :  1.47502e-05
 Reference value :  1.47503e-05
 Reference value :  1.47504e-05
 Reference value :  1.47506e-05
 Reference value :  1.47509e-05
 Reference value :  1.47514e-05
 Reference value :  1.47519e-05
 Reference value :  1.47525e-05
 Reference value :  1.47533e-05
 Reference value :  1.47541e-05
 Reference value :  1.47553e-05
 Reference value :  1.47563e-05
 Reference value :  1.47573e-05
 Reference value :  1.47585e-05
 Reference value :  1.47600e-05
 Reference value :  1.47618e-05
 Reference value :  1.47641e-05
 Reference value :  1.47676e-05
 Reference value :  1.47733e-05
 Reference value :  1.47847e-05
 Reference value :  1.48044e-05
 Reference value :  1.48419e-05
 Reference value :  1.49116e-05
 Reference value :  1.50000e-05
 Reference value :  1.50000e-05
 Reference value :  1.50000e-05
 Reference value :  1.50001e-05
 Reference value :  1.50001e-05
 Reference value :  1.50001e-05
 Reference value :  1.50001e-05
 Reference value :  1.50001e-05
 Reference value :  1.50002e-05
 Reference value :  1.50002e-05
 Reference value :  1.50004e-05
 Reference value :  1.50005e-05
 Reference value :  1.50009e-05
 Reference value :  1.50014e-05
 Reference value :  1.50022e-05
 Reference value :  1.50028e-05
 Reference value :  1.50035e-05
 Reference value :  1.50042e-05
 Reference value :  1.50051e-05
 Reference value :  1.50061e-05
 Reference value :  1.50071e-05
 Reference value :  1.50085e-05
 Reference value :  1.50099e-05
 Reference value :  1.50113e-05
 Reference value :  1.50128e-05
 Reference value :  1.50142e-05
 Reference value :  1.50157e-05
 Reference value :  1.50172e-05
 Reference value :  1.50190e-05
 Reference value :  1.50225e-05
 Reference value :  1.50285e-05
 Reference value :  1.50403e-05
 Reference value :  1.50623e-05
 Reference value :  1.51034e-05
 Reference value :  1.51856e-05
 Reference value :  1.52501e-05
 Reference value :  1.52501e-05
 Reference value :  1.52501e-05
 Reference value :  1.52502e-05
 Reference value :  1.52502e-05
 Reference value :  1.52502e-05
 Reference value :  1.52502e-05
 Reference value :  1.52502e-05
 Reference value :  1.52502e-05
 Reference value :  1.52502e-05
 Reference value :  1.52502e-05
 Reference value :  1.52503e-05
 Reference value :  1.52504e-05
 Reference value :  1.52506e-05
 Reference value :  1.52509e-05
 Reference value :  1.52514e-05
 Reference value :  1.52519e-05
 Reference value :  1.52525e-05
 Reference value :  1.52533e-05
 Reference value :  1.52541e-05
 Reference value :  1.52553e-05
 Reference value :  1.52562e-05
 Reference value :  1.52572e-05
 Reference value :  1.52582e-05
 Reference value :  1.52593e-05
 Reference value :  1.52606e-05
 Reference value :  1.52618e-05
 Reference value :  1.52632e-05
 Reference value :  1.52654e-05
 Reference value :  1.52677e-05
 Reference value :  1.52713e-05
 Reference value :  1.52770e-05
 Reference value :  1.52884e-05
 Reference value :  1.53112e-05
 Reference value :  1.53558e-05
 Reference value :  1.54450e-05
 Reference value :  1.55000e-05
 Reference value :  1.55008e-05
 Reference value :  1.55024e-05
 Reference value :  1.55032e-05
 Reference value :  1.55040e-05
 Reference value :  1.55050e-05
 Reference value :  1.55059e-05
 Reference value :  1.55067e-05
 Reference value :  1.55076e-05
 Reference value :  1.55084e-05
 Reference value :  1.55094e-05
 Reference value :  1.55104e-05
 Reference value :  1.55116e-05
 Reference value :  1.55132e-05
 Reference value :  1.55149e-05
 Reference value :  1.55167e-05
 Reference value :  1.55186e-05
 Reference value :  1.55203e-05
 Reference value :  1.55219e-05
 Reference value :  1.55235e-05
 Reference value :  1.55252e-05
 Reference value :  1.55269e-05
 Reference value :  1.55288e-05
 Reference value :  1.55308e-05
 Reference value :  1.55323e-05
 Reference value :  1.55339e-05
 Reference value :  1.55362e-05
 Reference value :  1.55386e-05
 Reference value :  1.55410e-05
 Reference value :  1.55459e-05
 Reference value :  1.55523e-05
 Reference value :  1.55628e-05
 Reference value :  1.55772e-05
 Reference value :  1.56058e-05
 Reference value :  1.56536e-05
 Reference value :  1.57307e-05
 Reference value :  1.57501e-05
 Reference value :  1.57501e-05
 Reference value :  1.57501e-05
 Reference value :  1.57502e-05
 Reference value :  1.57502e-05
 Reference value :  1.57502e-05
 Reference value :  1.57502e-05
 Reference value :  1.57502e-05
 Reference value :  1.57502e-05
 Reference value :  1.57502e-05
 Reference value :  1.57502e-05
 Reference value :  1.57503e-05
 Reference value :  1.57504e-05
 Reference value :  1.57506e-05
 Reference value :  1.57509e-05
 Reference value :  1.57513e-05
 Reference value :  1.57519e-05
 Reference value :  1.57525e-05
 Reference value :  1.57532e-05
 Reference value :  1.57541e-05
 Reference value :  1.57553e-05
 Reference value :  1.57562e-05
 Reference value :  1.57572e-05
 Reference value :  1.57582e-05
 Reference value :  1.57598e-05
 Reference value :  1.57613e-05
 Reference value :  1.57638e-05
 Reference value :  1.57668e-05
 Reference value :  1.57722e-05
 Reference value :  1.57831e-05
 Reference value :  1.58021e-05
 Reference value :  1.58399e-05
 Reference value :  1.59127e-05
 Reference value :  1.60000e-05
 Reference value :  1.60000e-05
 Reference value :  1.60000e-05
 Reference value :  1.60001e-05
 Reference value :  1.60001e-05
 Reference value :  1.60001e-05
 Reference value :  1.60001e-05
 Reference value :  1.60001e-05
 Reference value :  1.60002e-05
 Reference value :  1.60002e-05
 Reference value :  1.60004e-05
 Reference value :  1.60005e-05
 Reference value :  1.60009e-05
 Reference value :  1.60015e-05
 Reference value :  1.60022e-05
 Reference value :  1.60028e-05
 Reference value :  1.60034e-05
 Reference value :  1.60041e-05
 Reference value :  1.60050e-05
 Reference value :  1.60059e-05
 Reference value :  1.60069e-05
 Reference value :  1.60081e-05
 Reference value :  1.60096e-05
 Reference value :  1.60111e-05
 Reference value :  1.60125e-05
 Reference value :  1.60141e-05
 Reference value :  1.60159e-05
 Reference value :  1.60177e-05
 Reference value :  1.60198e-05
 Reference value :  1.60237e-05
 Reference value :  1.60294e-05
 Reference value :  1.60404e-05
 Reference value :  1.60592e-05
 Reference value :  1.60929e-05
 Reference value :  1.61566e-05
 Reference value :  1.62501e-05
 Reference value :  1.62501e-05
 Reference value :  1.62501e-05
 Reference value :  1.62502e-05
 Reference value :  1.62502e-05
 Reference value :  1.62502e-05
 Reference value :  1.62502e-05
 Reference value :  1.62502e-05
 Reference value :  1.62502e-05
 Reference value :  1.62502e-05
 Reference value :  1.62502e-05
 Reference value :  1.62503e-05
 Reference value :  1.62504e-05
 Reference value :  1.62506e-05
 Reference value :  1.62509e-05
 Reference value :  1.62514e-05
 Reference value :  1.62519e-05
 Reference value :  1.62525e-05
 Reference value :  1.62533e-05
 Reference value :  1.62541e-05
 Reference value :  1.62553e-05
 Reference value :  1.62563e-05
 Reference value :  1.62572e-05
 Reference value :  1.62583e-05
 Reference value :  1.62594e-05
 Reference value :  1.62606e-05
 Reference value :  1.62630e-05
 Reference value :  1.62658e-05
 Reference value :  1.62706e-05
 Reference value :  1.62796e-05
 Reference value :  1.62976e-05
 Reference value :  1.63307e-05
 Reference value :  1.63966e-05
 Reference value :  1.65000e-05
 Reference value :  1.65000e-05
 Reference value :  1.65000e-05
 Reference value :  1.65001e-05
 Reference value :  1.65001e-05
 Reference value :  1.65001e-05
 Reference value :  1.65001e-05
 Reference value :  1.65001e-05
 Reference value :  1.65002e-05
 Reference value :  1.65002e-05
 Reference value :  1.65004e-05
 Reference value :  1.65005e-05
 Reference value :  1.65009e-05
 Reference value :  1.65015e-05
 Reference value :  1.65022e-05
 Reference value :  1.65028e-05
 Reference value :  1.65035e-05
 Reference value :  1.65041e-05
 Reference value :  1.65050e-05
 Reference value :  1.65059e-05
 Reference value :  1.65067e-05
 Reference value :  1.65077e-05
 Reference value :  1.65087e-05
 Reference value :  1.65097e-05
 Reference value :  1.65107e-05
 Reference value :  1.65120e-05
 Reference value :  1.65137e-05
 Reference value :  1.65160e-05
 Reference value :  1.65187e-05
 Reference value :  1.65211e-05
 Reference value :  1.65235e-05
 Reference value :  1.65273e-05
 Reference value :  1.65309e-05
 Reference value :  1.65373e-05
 Reference value :  1.65459e-05
 Reference value :  1.65593e-05
 Reference value :  1.65812e-05
 Reference value :  1.66182e-05
 Reference value :  1.66796e-05
 Reference value :  1.67501e-05
 Reference value :  1.67501e-05
 Reference value :  1.67501e-05
 Reference value :  1.67502e-05
 Reference value :  1.67502e-05
 Reference value :  1.67502e-05
 Reference value :  1.67502e-05
 Reference value :  1.67502e-05
 Reference value :  1.67502e-05
 Reference value :  1.67502e-05
 Reference value :  1.67502e-05
 Reference value :  1.67503e-05
 Reference value :  1.67504e-05
 Reference value :  1.67506e-05
 Reference value :  1.67510e-05
 Reference value :  1.67514e-05
 Reference value :  1.67519e-05
 Reference value :  1.67525e-05
 Reference value :  1.67533e-05
 Reference value :  1.67542e-05
 Reference value :  1.67553e-05
 Reference value :  1.67564e-05
 Reference value :  1.67578e-05
 Reference value :  1.67594e-05
 Reference value :  1.67613e-05
 Reference value :  1.67640e-05
 Reference value :  1.67668e-05
 Reference value :  1.67719e-05
 Reference value :  1.67822e-05
 Reference value :  1.67990e-05
 Reference value :  1.68325e-05
 Reference value :  1.68924e-05
 Reference value :  1.70000e-05
 Reference value :  1.70017e-05
 Reference value :  1.70050e-05
 Reference value :  1.70068e-05
 Reference value :  1.70085e-05
 Reference value :  1.70108e-05
 Reference value :  1.70129e-05
 Reference value :  1.70147e-05
 Reference value :  1.70166e-05
 Reference value :  1.70187e-05
 Reference value :  1.70210e-05
 Reference value :  1.70238e-05
 Reference value :  1.70279e-05
 Reference value :  1.70334e-05
 Reference value :  1.70372e-05
 Reference value :  1.70407e-05
 Reference value :  1.70436e-05
 Reference value :  1.70461e-05
 Reference value :  1.70481e-05
 Reference value :  1.70502e-05
 Reference value :  1.70520e-05
 Reference value :  1.70540e-05
 Reference value :  1.70569e-05
 Reference value :  1.70596e-05
 Reference value :  1.70626e-05
 Reference value :  1.70680e-05
 Reference value :  1.70750e-05
 Reference value :  1.70827e-05
 Reference value :  1.70927e-05
 Reference value :  1.71083e-05
 Reference value :  1.71223e-05
 Reference value :  1.71427e-05
 Reference value :  1.71646e-05
 Reference value :  1.71913e-05
 Reference value :  1.72239e-05
 Reference value :  1.72501e-05
 Reference value :  1.72501e-05
 Reference value :  1.72501e-05
 Reference value :  1.72502e-05
 Reference value :  1.72502e-05
 Reference value :  1.72502e-05
 Reference value :  1.72502e-05
 Reference value :  1.72502e-05
 Reference value :  1.72502e-05
 Reference value :  1.72502e-05
 Reference value :  1.72502e-05
 Reference value :  1.72503e-05
 Reference value :  1.72504e-05
 Reference value :  1.72506e-05
 Reference value :  1.72510e-05
 Reference value :  1.72514e-05
 Reference value :  1.72519e-05
 Reference value :  1.72525e-05
 Reference value :  1.72533e-05
 Reference value :  1.72542e-05
 Reference value :  1.72554e-05
 Reference value :  1.72564e-05
 Reference value :  1.72574e-05
 Reference value :  1.72585e-05
 Reference value :  1.72601e-05
 Reference value :  1.72617e-05
 Reference value :  1.72641e-05
 Reference value :  1.72676e-05
 Reference value :  1.72739e-05
 Reference value :  1.72861e-05
 Reference value :  1.73066e-05
 Reference value :  1.73464e-05
 Reference value :  1.74173e-05
 Reference value :  1.75000e-05
 Reference value :  1.75000e-05
 Reference value :  1.75000e-05
 Reference value :  1.75001e-05
 Reference value :  1.75001e-05
 Reference value :  1.75001e-05
 Reference value :  1.75001e-05
 Reference value :  1.75001e-05
 Reference value :  1.75002e-05
 Reference value :  1.75002e-05
 Reference value :  1.75004e-05
 Reference value :  1.75005e-05
 Reference value :  1.75009e-05
 Reference value :  1.75015e-05
 Reference value :  1.75022e-05
 Reference value :  1.75028e-05
 Reference value :  1.75035e-05
 Reference value :  1.75042e-05
 Reference value :  1.75052e-05
 Reference value :  1.75061e-05
 Reference value :  1.75071e-05
 Reference value :  1.75085e-05
 Reference value :  1.75098e-05
 Reference value :  1.75118e-05
 Reference value :  1.75141e-05
 Reference value :  1.75159e-05
 Reference value :  1.75179e-05
 Reference value :  1.75199e-05
 Reference value :  1.75222e-05
 Reference value :  1.75248e-05
 Reference value :  1.75275e-05
 Reference value :  1.75325e-05
 Reference value :  1.75409e-05
 Reference value :  1.75505e-05
 Reference value :  1.75696e-05
 Reference value :  1.76078e-05
 Reference value :  1.76715e-05
 Reference value :  1.77501e-05
 Reference value :  1.77501e-05
 Reference value :  1.77501e-05
 Reference value :  1.77502e-05
 Reference value :  1.77502e-05
 Reference value :  1.77502e-05
 Reference value :  1.77502e-05
 Reference value :  1.77502e-05
 Reference value :  1.77502e-05
 Reference value :  1.77502e-05
 Reference value :  1.77502e-05
 Reference value :  1.77503e-05
 Reference value :  1.77504e-05
 Reference value :  1.77506e-05
 Reference value :  1.77510e-05
 Reference value :  1.77514e-05
 Reference value :  1.77519e-05
 Reference value :  1.77525e-05
 Reference value :  1.77533e-05
 Reference value :  1.77542e-05
 Reference value :  1.77554e-05
 Reference value :  1.77565e-05
 Reference value :  1.77575e-05
 Reference value :  1.77586e-05
 Reference value :  1.77598e-05
 Reference value :  1.77612e-05
 Reference value :  1.77636e-05
 Reference value :  1.77668e-05
 Reference value :  1.77724e-05
 Reference value :  1.77835e-05
 Reference value :  1.78027e-05
 Reference value :  1.78400e-05
 Reference value :  1.79084e-05
 Reference value :  1.80000e-05
No. of Data Rows : 2760
ngspice-44 done
