
Note: Compatibility modes selected: hs a


Circuit: ** sch_path: /home/samantha/cace/sar-adc-using-sky130-pdk/runs/run_2025-09-08_20-42-12/parameters/sampling_rate/run_4/sampling_rate.sch

option SCALE: Scale is set to 1e-06 for instance and model parameters
option SCALE: Scale is set to 1e-06 for instance and model parameters
option SCALE: Scale is set to 1e-06 for instance and model parameters
option SCALE: Scale is set to 1e-06 for instance and model parameters
Doing analysis at TEMP = 27.000000 and TNOM = 27.000000

Using KLU as Direct Linear Solver
Operating point simulation skipped by 'uic',
  now using transient initial conditions.
 Reference value :  1.00000e-12
 Reference value :  1.02772e-12
 Reference value :  1.08316e-12
 Reference value :  1.19404e-12
 Reference value :  1.33846e-12
 Reference value :  1.62730e-12
 Reference value :  2.20497e-12
 Reference value :  3.04355e-12
 Reference value :  3.95022e-12
 Reference value :  5.17012e-12
 Reference value :  6.91573e-12
 Reference value :  1.00627e-11
 Reference value :  1.37568e-11
 Reference value :  2.04423e-11
 Reference value :  2.73753e-11
 Reference value :  3.62512e-11
 Reference value :  4.72146e-11
 Reference value :  6.42704e-11
 Reference value :  8.50482e-11
 Reference value :  1.00000e-10
 Reference value :  1.01223e-10
 Reference value :  1.03670e-10
 Reference value :  1.08564e-10
 Reference value :  1.18352e-10
 Reference value :  1.37928e-10
 Reference value :  1.77079e-10
 Reference value :  2.55382e-10
 Reference value :  4.03147e-10
 Reference value :  5.67902e-10
 Reference value :  8.30352e-10
 Reference value :  1.18870e-09
 Reference value :  1.70220e-09
 Reference value :  2.39385e-09
 Reference value :  3.20962e-09
 Reference value :  4.20054e-09
 Reference value :  5.09042e-09
 Reference value :  6.02538e-09
 Reference value :  7.22732e-09
 Reference value :  8.49241e-09
 Reference value :  9.73080e-09
 Reference value :  1.06101e-08
 Reference value :  1.14099e-08
 Reference value :  1.23541e-08
 Reference value :  1.33592e-08
 Reference value :  1.53694e-08
 Reference value :  1.85294e-08
 Reference value :  2.28757e-08
 Reference value :  2.75328e-08
 Reference value :  3.13944e-08
 Reference value :  3.54823e-08
 Reference value :  3.92451e-08
 Reference value :  4.34671e-08
 Reference value :  5.19110e-08
 Reference value :  6.65246e-08
 Reference value :  9.04288e-08
 Reference value :  1.38237e-07
 Reference value :  2.00762e-07
 Reference value :  2.50100e-07
 Reference value :  2.50110e-07
 Reference value :  2.50130e-07
 Reference value :  2.50170e-07
 Reference value :  2.50200e-07
 Reference value :  2.50201e-07
 Reference value :  2.50202e-07
 Reference value :  2.50204e-07
 Reference value :  2.50208e-07
 Reference value :  2.50216e-07
 Reference value :  2.50233e-07
 Reference value :  2.50267e-07
 Reference value :  2.50335e-07
 Reference value :  2.50428e-07
 Reference value :  2.50611e-07
 Reference value :  2.50792e-07
 Reference value :  2.51135e-07
 Reference value :  2.51559e-07
 Reference value :  2.52259e-07
 Reference value :  2.52900e-07
 Reference value :  2.53739e-07
 Reference value :  2.54754e-07
 Reference value :  2.55923e-07
 Reference value :  2.57000e-07
 Reference value :  2.58032e-07
 Reference value :  2.59197e-07
 Reference value :  2.60299e-07
 Reference value :  2.62113e-07
 Reference value :  2.64722e-07
 Reference value :  2.67420e-07
 Reference value :  2.72043e-07
 Reference value :  2.78805e-07
 Reference value :  2.92330e-07
 Reference value :  3.19379e-07
 Reference value :  3.70336e-07
 Reference value :  4.72249e-07
 Reference value :  5.00000e-07
 Reference value :  5.00010e-07
 Reference value :  5.00030e-07
 Reference value :  5.00070e-07
 Reference value :  5.00100e-07
 Reference value :  5.00104e-07
 Reference value :  5.00113e-07
 Reference value :  5.00130e-07
 Reference value :  5.00164e-07
 Reference value :  5.00232e-07
 Reference value :  5.00369e-07
 Reference value :  5.00560e-07
 Reference value :  5.00941e-07
 Reference value :  5.01536e-07
 Reference value :  5.02163e-07
 Reference value :  5.02854e-07
 Reference value :  5.03676e-07
 Reference value :  5.04428e-07
 Reference value :  5.05342e-07
 Reference value :  5.06300e-07
 Reference value :  5.07291e-07
 Reference value :  5.08691e-07
 Reference value :  5.10115e-07
 Reference value :  5.12675e-07
 Reference value :  5.15600e-07
 Reference value :  5.17748e-07
 Reference value :  5.20194e-07
 Reference value :  5.22649e-07
 Reference value :  5.25203e-07
 Reference value :  5.28411e-07
 Reference value :  5.33033e-07
 Reference value :  5.39375e-07
 Reference value :  5.48758e-07
 Reference value :  5.67524e-07
 Reference value :  5.94942e-07
 Reference value :  6.46001e-07
 Reference value :  7.44578e-07
 Reference value :  7.50100e-07
 Reference value :  7.50110e-07
 Reference value :  7.50130e-07
 Reference value :  7.50170e-07
 Reference value :  7.50200e-07
 Reference value :  7.50201e-07
 Reference value :  7.50202e-07
 Reference value :  7.50205e-07
 Reference value :  7.50212e-07
 Reference value :  7.50224e-07
 Reference value :  7.50249e-07
 Reference value :  7.50298e-07
 Reference value :  7.50396e-07
 Reference value :  7.50594e-07
 Reference value :  7.50984e-07
 Reference value :  7.51569e-07
 Reference value :  7.52239e-07
 Reference value :  7.52985e-07
 Reference value :  7.53829e-07
 Reference value :  7.54923e-07
 Reference value :  7.55816e-07
 Reference value :  7.56877e-07
 Reference value :  7.57785e-07
 Reference value :  7.58768e-07
 Reference value :  7.59882e-07
 Reference value :  7.61132e-07
 Reference value :  7.63633e-07
 Reference value :  7.66447e-07
 Reference value :  7.70881e-07
 Reference value :  7.76848e-07
 Reference value :  7.88782e-07
 Reference value :  8.12649e-07
 Reference value :  8.60150e-07
 Reference value :  9.55151e-07
 Reference value :  1.00000e-06
 Reference value :  1.00001e-06
 Reference value :  1.00003e-06
 Reference value :  1.00007e-06
 Reference value :  1.00010e-06
 Reference value :  1.00010e-06
 Reference value :  1.00011e-06
 Reference value :  1.00013e-06
 Reference value :  1.00016e-06
 Reference value :  1.00023e-06
 Reference value :  1.00037e-06
 Reference value :  1.00056e-06
 Reference value :  1.00094e-06
 Reference value :  1.00153e-06
 Reference value :  1.00216e-06
 Reference value :  1.00285e-06
 Reference value :  1.00357e-06
 Reference value :  1.00432e-06
 Reference value :  1.00516e-06
 Reference value :  1.00607e-06
 Reference value :  1.00702e-06
 Reference value :  1.00795e-06
 Reference value :  1.00904e-06
 Reference value :  1.01001e-06
 Reference value :  1.01108e-06
 Reference value :  1.01259e-06
 Reference value :  1.01427e-06
 Reference value :  1.01717e-06
 Reference value :  1.02013e-06
 Reference value :  1.02249e-06
 Reference value :  1.02462e-06
 Reference value :  1.02615e-06
 Reference value :  1.02771e-06
 Reference value :  1.02917e-06
 Reference value :  1.03074e-06
 Reference value :  1.03251e-06
 Reference value :  1.03500e-06
 Reference value :  1.03757e-06
 Reference value :  1.04224e-06
 Reference value :  1.04907e-06
 Reference value :  1.05961e-06
 Reference value :  1.07738e-06
 Reference value :  1.10517e-06
 Reference value :  1.14497e-06
 Reference value :  1.22456e-06
 Reference value :  1.25010e-06
 Reference value :  1.25011e-06
 Reference value :  1.25013e-06
 Reference value :  1.25017e-06
 Reference value :  1.25020e-06
 Reference value :  1.25020e-06
 Reference value :  1.25020e-06
 Reference value :  1.25021e-06
 Reference value :  1.25021e-06
 Reference value :  1.25022e-06
 Reference value :  1.25025e-06
 Reference value :  1.25030e-06
 Reference value :  1.25040e-06
 Reference value :  1.25059e-06
 Reference value :  1.25094e-06
 Reference value :  1.25156e-06
 Reference value :  1.25219e-06
 Reference value :  1.25296e-06
 Reference value :  1.25378e-06
 Reference value :  1.25486e-06
 Reference value :  1.25579e-06
 Reference value :  1.25687e-06
 Reference value :  1.25800e-06
 Reference value :  1.25906e-06
 Reference value :  1.26088e-06
 Reference value :  1.26261e-06
 Reference value :  1.26545e-06
 Reference value :  1.26899e-06
 Reference value :  1.27436e-06
 Reference value :  1.28510e-06
 Reference value :  1.30371e-06
 Reference value :  1.33785e-06
 Reference value :  1.40611e-06
 Reference value :  1.50000e-06
 Reference value :  1.50001e-06
 Reference value :  1.50003e-06
 Reference value :  1.50007e-06
 Reference value :  1.50010e-06
 Reference value :  1.50010e-06
 Reference value :  1.50011e-06
 Reference value :  1.50013e-06
 Reference value :  1.50016e-06
 Reference value :  1.50023e-06
 Reference value :  1.50037e-06
 Reference value :  1.50056e-06
 Reference value :  1.50093e-06
 Reference value :  1.50161e-06
 Reference value :  1.50223e-06
 Reference value :  1.50291e-06
 Reference value :  1.50362e-06
 Reference value :  1.50438e-06
 Reference value :  1.50523e-06
 Reference value :  1.50615e-06
 Reference value :  1.50719e-06
 Reference value :  1.50853e-06
 Reference value :  1.50991e-06
 Reference value :  1.51148e-06
 Reference value :  1.51304e-06
 Reference value :  1.51463e-06
 Reference value :  1.51657e-06
 Reference value :  1.51844e-06
 Reference value :  1.52078e-06
 Reference value :  1.52293e-06
 Reference value :  1.52722e-06
 Reference value :  1.53579e-06
 Reference value :  1.54892e-06
 Reference value :  1.57518e-06
 Reference value :  1.62770e-06
 Reference value :  1.73274e-06
 Reference value :  1.75010e-06
 Reference value :  1.75011e-06
 Reference value :  1.75013e-06
 Reference value :  1.75017e-06
 Reference value :  1.75020e-06
 Reference value :  1.75020e-06
 Reference value :  1.75020e-06
 Reference value :  1.75021e-06
 Reference value :  1.75021e-06
 Reference value :  1.75022e-06
 Reference value :  1.75025e-06
 Reference value :  1.75030e-06
 Reference value :  1.75039e-06
 Reference value :  1.75059e-06
 Reference value :  1.75093e-06
 Reference value :  1.75154e-06
 Reference value :  1.75216e-06
 Reference value :  1.75295e-06
 Reference value :  1.75376e-06
 Reference value :  1.75483e-06
 Reference value :  1.75576e-06
 Reference value :  1.75682e-06
 Reference value :  1.75776e-06
 Reference value :  1.75875e-06
 Reference value :  1.75989e-06
 Reference value :  1.76117e-06
 Reference value :  1.76372e-06
 Reference value :  1.76652e-06
 Reference value :  1.77104e-06
 Reference value :  1.77711e-06
 Reference value :  1.78924e-06
 Reference value :  1.81350e-06
 Reference value :  1.86202e-06
 Reference value :  1.95907e-06
 Reference value :  2.00000e-06
 Reference value :  2.00001e-06
 Reference value :  2.00003e-06
 Reference value :  2.00007e-06
 Reference value :  2.00010e-06
 Reference value :  2.00010e-06
 Reference value :  2.00011e-06
 Reference value :  2.00013e-06
 Reference value :  2.00016e-06
 Reference value :  2.00023e-06
 Reference value :  2.00037e-06
 Reference value :  2.00055e-06
 Reference value :  2.00092e-06
 Reference value :  2.00160e-06
 Reference value :  2.00223e-06
 Reference value :  2.00291e-06
 Reference value :  2.00363e-06
 Reference value :  2.00439e-06
 Reference value :  2.00523e-06
 Reference value :  2.00615e-06
 Reference value :  2.00717e-06
 Reference value :  2.00818e-06
 Reference value :  2.00924e-06
 Reference value :  2.01025e-06
 Reference value :  2.01134e-06
 Reference value :  2.01279e-06
 Reference value :  2.01462e-06
 Reference value :  2.01758e-06
 Reference value :  2.02043e-06
 Reference value :  2.02282e-06
 Reference value :  2.02486e-06
 Reference value :  2.02692e-06
 Reference value :  2.02893e-06
 Reference value :  2.03101e-06
 Reference value :  2.03338e-06
 Reference value :  2.03588e-06
 Reference value :  2.03883e-06
 Reference value :  2.04329e-06
 Reference value :  2.04943e-06
 Reference value :  2.05935e-06
 Reference value :  2.07517e-06
 Reference value :  2.10076e-06
 Reference value :  2.14421e-06
 Reference value :  2.20467e-06
 Reference value :  2.25010e-06
 Reference value :  2.25011e-06
 Reference value :  2.25013e-06
 Reference value :  2.25017e-06
 Reference value :  2.25020e-06
 Reference value :  2.25020e-06
 Reference value :  2.25020e-06
 Reference value :  2.25021e-06
 Reference value :  2.25021e-06
 Reference value :  2.25022e-06
 Reference value :  2.25025e-06
 Reference value :  2.25030e-06
 Reference value :  2.25039e-06
 Reference value :  2.25059e-06
 Reference value :  2.25092e-06
 Reference value :  2.25154e-06
 Reference value :  2.25216e-06
 Reference value :  2.25295e-06
 Reference value :  2.25375e-06
 Reference value :  2.25482e-06
 Reference value :  2.25573e-06
 Reference value :  2.25678e-06
 Reference value :  2.25779e-06
 Reference value :  2.25883e-06
 Reference value :  2.26056e-06
 Reference value :  2.26222e-06
 Reference value :  2.26418e-06
 Reference value :  2.26640e-06
 Reference value :  2.26908e-06
 Reference value :  2.27206e-06
 Reference value :  2.27803e-06
 Reference value :  2.28869e-06
 Reference value :  2.30484e-06
 Reference value :  2.33543e-06
 Reference value :  2.35820e-06
 Reference value :  2.37492e-06
 Reference value :  2.38707e-06
 Reference value :  2.39743e-06
 Reference value :  2.40856e-06
 Reference value :  2.42868e-06
 Reference value :  2.44950e-06
 Reference value :  2.48519e-06
 Reference value :  2.50000e-06
 Reference value :  2.50001e-06
 Reference value :  2.50003e-06
 Reference value :  2.50007e-06
 Reference value :  2.50010e-06
 Reference value :  2.50010e-06
 Reference value :  2.50011e-06
 Reference value :  2.50013e-06
 Reference value :  2.50016e-06
 Reference value :  2.50023e-06
 Reference value :  2.50037e-06
 Reference value :  2.50055e-06
 Reference value :  2.50092e-06
 Reference value :  2.50160e-06
 Reference value :  2.50223e-06
 Reference value :  2.50291e-06
 Reference value :  2.50363e-06
 Reference value :  2.50438e-06
 Reference value :  2.50524e-06
 Reference value :  2.50616e-06
 Reference value :  2.50719e-06
 Reference value :  2.50853e-06
 Reference value :  2.50991e-06
 Reference value :  2.51148e-06
 Reference value :  2.51304e-06
 Reference value :  2.51463e-06
 Reference value :  2.51636e-06
 Reference value :  2.51820e-06
 Reference value :  2.52020e-06
 Reference value :  2.52228e-06
 Reference value :  2.52644e-06
 Reference value :  2.53463e-06
 Reference value :  2.54806e-06
 Reference value :  2.57493e-06
 Reference value :  2.62865e-06
 Reference value :  2.73610e-06
 Reference value :  2.75010e-06
 Reference value :  2.75011e-06
 Reference value :  2.75013e-06
 Reference value :  2.75017e-06
 Reference value :  2.75020e-06
 Reference value :  2.75020e-06
 Reference value :  2.75020e-06
 Reference value :  2.75021e-06
 Reference value :  2.75021e-06
 Reference value :  2.75022e-06
 Reference value :  2.75025e-06
 Reference value :  2.75030e-06
 Reference value :  2.75039e-06
 Reference value :  2.75059e-06
 Reference value :  2.75093e-06
 Reference value :  2.75154e-06
 Reference value :  2.75216e-06
 Reference value :  2.75294e-06
 Reference value :  2.75375e-06
 Reference value :  2.75482e-06
 Reference value :  2.75575e-06
 Reference value :  2.75682e-06
 Reference value :  2.75776e-06
 Reference value :  2.75876e-06
 Reference value :  2.75989e-06
 Reference value :  2.76116e-06
 Reference value :  2.76371e-06
 Reference value :  2.76651e-06
 Reference value :  2.77102e-06
 Reference value :  2.77708e-06
 Reference value :  2.78920e-06
 Reference value :  2.81344e-06
 Reference value :  2.86193e-06
 Reference value :  2.95891e-06
 Reference value :  3.00000e-06
 Reference value :  3.00001e-06
 Reference value :  3.00003e-06
 Reference value :  3.00007e-06
 Reference value :  3.00010e-06
 Reference value :  3.00010e-06
 Reference value :  3.00011e-06
 Reference value :  3.00013e-06
 Reference value :  3.00016e-06
 Reference value :  3.00023e-06
 Reference value :  3.00037e-06
 Reference value :  3.00055e-06
 Reference value :  3.00092e-06
 Reference value :  3.00160e-06
 Reference value :  3.00223e-06
 Reference value :  3.00291e-06
 Reference value :  3.00363e-06
 Reference value :  3.00438e-06
 Reference value :  3.00523e-06
 Reference value :  3.00615e-06
 Reference value :  3.00710e-06
 Reference value :  3.00811e-06
 Reference value :  3.00918e-06
 Reference value :  3.01020e-06
 Reference value :  3.01129e-06
 Reference value :  3.01274e-06
 Reference value :  3.01454e-06
 Reference value :  3.01749e-06
 Reference value :  3.02028e-06
 Reference value :  3.02266e-06
 Reference value :  3.02457e-06
 Reference value :  3.02637e-06
 Reference value :  3.02839e-06
 Reference value :  3.03027e-06
 Reference value :  3.03256e-06
 Reference value :  3.03486e-06
 Reference value :  3.03825e-06
 Reference value :  3.04233e-06
 Reference value :  3.04770e-06
 Reference value :  3.05291e-06
 Reference value :  3.05841e-06
 Reference value :  3.06235e-06
 Reference value :  3.06670e-06
 Reference value :  3.07051e-06
 Reference value :  3.07492e-06
 Reference value :  3.08096e-06
 Reference value :  3.08716e-06
 Reference value :  3.09343e-06
 Reference value :  3.10100e-06
 Reference value :  3.11613e-06
 Reference value :  3.13313e-06
 Reference value :  3.16347e-06
 Reference value :  3.20697e-06
 Reference value :  3.24510e-06
 Reference value :  3.25010e-06
 Reference value :  3.25011e-06
 Reference value :  3.25013e-06
 Reference value :  3.25017e-06
 Reference value :  3.25020e-06
 Reference value :  3.25020e-06
 Reference value :  3.25020e-06
 Reference value :  3.25021e-06
 Reference value :  3.25021e-06
 Reference value :  3.25022e-06
 Reference value :  3.25025e-06
 Reference value :  3.25030e-06
 Reference value :  3.25039e-06
 Reference value :  3.25059e-06
 Reference value :  3.25092e-06
 Reference value :  3.25154e-06
 Reference value :  3.25216e-06
 Reference value :  3.25294e-06
 Reference value :  3.25375e-06
 Reference value :  3.25482e-06
 Reference value :  3.25569e-06
 Reference value :  3.25671e-06
 Reference value :  3.25768e-06
 Reference value :  3.25869e-06
 Reference value :  3.26041e-06
 Reference value :  3.26200e-06
 Reference value :  3.26484e-06
 Reference value :  3.26791e-06
 Reference value :  3.27294e-06
 Reference value :  3.28193e-06
 Reference value :  3.29989e-06
 Reference value :  3.33583e-06
 Reference value :  3.40770e-06
 Reference value :  3.50000e-06
 Reference value :  3.50001e-06
 Reference value :  3.50003e-06
 Reference value :  3.50007e-06
 Reference value :  3.50010e-06
 Reference value :  3.50010e-06
 Reference value :  3.50011e-06
 Reference value :  3.50013e-06
 Reference value :  3.50016e-06
 Reference value :  3.50023e-06
 Reference value :  3.50037e-06
 Reference value :  3.50056e-06
 Reference value :  3.50093e-06
 Reference value :  3.50161e-06
 Reference value :  3.50223e-06
 Reference value :  3.50286e-06
 Reference value :  3.50357e-06
 Reference value :  3.50431e-06
 Reference value :  3.50516e-06
 Reference value :  3.50606e-06
 Reference value :  3.50701e-06
 Reference value :  3.50838e-06
 Reference value :  3.50964e-06
 Reference value :  3.51121e-06
 Reference value :  3.51251e-06
 Reference value :  3.51391e-06
 Reference value :  3.51569e-06
 Reference value :  3.51758e-06
 Reference value :  3.51943e-06
 Reference value :  3.52228e-06
 Reference value :  3.52501e-06
 Reference value :  3.53011e-06
 Reference value :  3.53733e-06
 Reference value :  3.54930e-06
 Reference value :  3.57088e-06
 Reference value :  3.60625e-06
 Reference value :  3.67114e-06
 Reference value :  3.75010e-06
 Reference value :  3.75011e-06
 Reference value :  3.75013e-06
 Reference value :  3.75017e-06
 Reference value :  3.75020e-06
 Reference value :  3.75020e-06
 Reference value :  3.75020e-06
 Reference value :  3.75021e-06
 Reference value :  3.75021e-06
 Reference value :  3.75022e-06
 Reference value :  3.75025e-06
 Reference value :  3.75030e-06
 Reference value :  3.75040e-06
 Reference value :  3.75059e-06
 Reference value :  3.75094e-06
 Reference value :  3.75154e-06
 Reference value :  3.75218e-06
 Reference value :  3.75295e-06
 Reference value :  3.75377e-06
 Reference value :  3.75483e-06
 Reference value :  3.75574e-06
 Reference value :  3.75681e-06
 Reference value :  3.75774e-06
 Reference value :  3.75873e-06
 Reference value :  3.75986e-06
 Reference value :  3.76112e-06
 Reference value :  3.76239e-06
 Reference value :  3.76420e-06
 Reference value :  3.76634e-06
 Reference value :  3.76910e-06
 Reference value :  3.77268e-06
 Reference value :  3.77776e-06
 Reference value :  3.78792e-06
 Reference value :  3.80375e-06
 Reference value :  3.83541e-06
 Reference value :  3.89873e-06
 Reference value :  4.00000e-06
 Reference value :  4.00001e-06
 Reference value :  4.00003e-06
 Reference value :  4.00007e-06
 Reference value :  4.00010e-06
 Reference value :  4.00010e-06
 Reference value :  4.00011e-06
 Reference value :  4.00013e-06
 Reference value :  4.00016e-06
 Reference value :  4.00023e-06
 Reference value :  4.00037e-06
 Reference value :  4.00055e-06
 Reference value :  4.00092e-06
 Reference value :  4.00160e-06
 Reference value :  4.00223e-06
 Reference value :  4.00291e-06
 Reference value :  4.00363e-06
 Reference value :  4.00438e-06
 Reference value :  4.00522e-06
 Reference value :  4.00613e-06
 Reference value :  4.00697e-06
 Reference value :  4.00785e-06
 Reference value :  4.00875e-06
 Reference value :  4.00972e-06
 Reference value :  4.01065e-06
 Reference value :  4.01197e-06
 Reference value :  4.01333e-06
 Reference value :  4.01560e-06
 Reference value :  4.01720e-06
 Reference value :  4.01891e-06
 Reference value :  4.02047e-06
 Reference value :  4.02227e-06
 Reference value :  4.02357e-06
 Reference value :  4.02482e-06
 Reference value :  4.02650e-06
 Reference value :  4.02805e-06
 Reference value :  4.02966e-06
 Reference value :  4.03153e-06
 Reference value :  4.03348e-06
 Reference value :  4.03658e-06
 Reference value :  4.04036e-06
 Reference value :  4.04791e-06
 Reference value :  4.06145e-06
 Reference value :  4.07538e-06
 Reference value :  4.08807e-06
 Reference value :  4.09413e-06
 Reference value :  4.10001e-06
 Reference value :  4.10586e-06
 Reference value :  4.11362e-06
 Reference value :  4.12353e-06
 Reference value :  4.13783e-06
 Reference value :  4.15809e-06
 Reference value :  4.18693e-06
 Reference value :  4.22438e-06
 Reference value :  4.25010e-06
 Reference value :  4.25011e-06
 Reference value :  4.25013e-06
 Reference value :  4.25017e-06
 Reference value :  4.25020e-06
 Reference value :  4.25020e-06
 Reference value :  4.25020e-06
 Reference value :  4.25021e-06
 Reference value :  4.25021e-06
 Reference value :  4.25022e-06
 Reference value :  4.25025e-06
 Reference value :  4.25030e-06
 Reference value :  4.25039e-06
 Reference value :  4.25059e-06
 Reference value :  4.25093e-06
 Reference value :  4.25154e-06
 Reference value :  4.25216e-06
 Reference value :  4.25294e-06
 Reference value :  4.25375e-06
 Reference value :  4.25482e-06
 Reference value :  4.25569e-06
 Reference value :  4.25671e-06
 Reference value :  4.25768e-06
 Reference value :  4.25870e-06
 Reference value :  4.26042e-06
 Reference value :  4.26201e-06
 Reference value :  4.26486e-06
 Reference value :  4.26794e-06
 Reference value :  4.27299e-06
 Reference value :  4.28083e-06
 Reference value :  4.28829e-06
 Reference value :  4.29701e-06
 Reference value :  4.31039e-06
 Reference value :  4.33523e-06
 Reference value :  4.37388e-06
 Reference value :  4.41938e-06
 Reference value :  4.47111e-06
 Reference value :  4.50000e-06
 Reference value :  4.50001e-06
 Reference value :  4.50003e-06
 Reference value :  4.50007e-06
 Reference value :  4.50010e-06
 Reference value :  4.50010e-06
 Reference value :  4.50011e-06
 Reference value :  4.50013e-06
 Reference value :  4.50016e-06
 Reference value :  4.50023e-06
 Reference value :  4.50037e-06
 Reference value :  4.50056e-06
 Reference value :  4.50092e-06
 Reference value :  4.50161e-06
 Reference value :  4.50223e-06
 Reference value :  4.50286e-06
 Reference value :  4.50357e-06
 Reference value :  4.50431e-06
 Reference value :  4.50516e-06
 Reference value :  4.50606e-06
 Reference value :  4.50702e-06
 Reference value :  4.50839e-06
 Reference value :  4.50965e-06
 Reference value :  4.51116e-06
 Reference value :  4.51250e-06
 Reference value :  4.51390e-06
 Reference value :  4.51532e-06
 Reference value :  4.51699e-06
 Reference value :  4.51876e-06
 Reference value :  4.52062e-06
 Reference value :  4.52434e-06
 Reference value :  4.53177e-06
 Reference value :  4.54478e-06
 Reference value :  4.57079e-06
 Reference value :  4.62282e-06
 Reference value :  4.72687e-06
 Reference value :  4.75010e-06
 Reference value :  4.75011e-06
 Reference value :  4.75013e-06
 Reference value :  4.75017e-06
 Reference value :  4.75020e-06
 Reference value :  4.75020e-06
 Reference value :  4.75020e-06
 Reference value :  4.75021e-06
 Reference value :  4.75021e-06
 Reference value :  4.75022e-06
 Reference value :  4.75025e-06
 Reference value :  4.75030e-06
 Reference value :  4.75039e-06
 Reference value :  4.75059e-06
 Reference value :  4.75092e-06
 Reference value :  4.75154e-06
 Reference value :  4.75216e-06
 Reference value :  4.75294e-06
 Reference value :  4.75375e-06
 Reference value :  4.75481e-06
 Reference value :  4.75574e-06
 Reference value :  4.75682e-06
 Reference value :  4.75777e-06
 Reference value :  4.75877e-06
 Reference value :  4.75991e-06
 Reference value :  4.76118e-06
 Reference value :  4.76253e-06
 Reference value :  4.76427e-06
 Reference value :  4.76668e-06
 Reference value :  4.76945e-06
 Reference value :  4.77329e-06
 Reference value :  4.77860e-06
 Reference value :  4.78923e-06
 Reference value :  4.81048e-06
 Reference value :  4.85299e-06
 Reference value :  4.93801e-06
 Reference value :  5.00000e-06
 Reference value :  5.00001e-06
 Reference value :  5.00003e-06
 Reference value :  5.00007e-06
 Reference value :  5.00010e-06
 Reference value :  5.00010e-06
 Reference value :  5.00011e-06
 Reference value :  5.00013e-06
 Reference value :  5.00016e-06
 Reference value :  5.00023e-06
 Reference value :  5.00037e-06
 Reference value :  5.00055e-06
 Reference value :  5.00092e-06
 Reference value :  5.00160e-06
 Reference value :  5.00223e-06
 Reference value :  5.00291e-06
 Reference value :  5.00363e-06
 Reference value :  5.00440e-06
 Reference value :  5.00524e-06
 Reference value :  5.00615e-06
 Reference value :  5.00702e-06
 Reference value :  5.00791e-06
 Reference value :  5.00885e-06
 Reference value :  5.00984e-06
 Reference value :  5.01084e-06
 Reference value :  5.01222e-06
 Reference value :  5.01390e-06
 Reference value :  5.01541e-06
 Reference value :  5.01707e-06
 Reference value :  5.01876e-06
 Reference value :  5.02055e-06
 Reference value :  5.02231e-06
 Reference value :  5.02370e-06
 Reference value :  5.02503e-06
 Reference value :  5.02672e-06
 Reference value :  5.02836e-06
 Reference value :  5.02989e-06
 Reference value :  5.03195e-06
 Reference value :  5.03396e-06
 Reference value :  5.03687e-06
 Reference value :  5.04067e-06
 Reference value :  5.04438e-06
 Reference value :  5.04700e-06
 Reference value :  5.04950e-06
 Reference value :  5.05240e-06
 Reference value :  5.05509e-06
 Reference value :  5.05931e-06
 Reference value :  5.06381e-06
 Reference value :  5.07026e-06
 Reference value :  5.07907e-06
 Reference value :  5.09187e-06
 Reference value :  5.10647e-06
 Reference value :  5.12563e-06
 Reference value :  5.15395e-06
 Reference value :  5.20131e-06
 Reference value :  5.25010e-06
 Reference value :  5.25011e-06
 Reference value :  5.25013e-06
 Reference value :  5.25017e-06
 Reference value :  5.25020e-06
 Reference value :  5.25020e-06
 Reference value :  5.25020e-06
 Reference value :  5.25021e-06
 Reference value :  5.25021e-06
 Reference value :  5.25022e-06
 Reference value :  5.25025e-06
 Reference value :  5.25030e-06
 Reference value :  5.25040e-06
 Reference value :  5.25059e-06
 Reference value :  5.25094e-06
 Reference value :  5.25154e-06
 Reference value :  5.25217e-06
 Reference value :  5.25294e-06
 Reference value :  5.25376e-06
 Reference value :  5.25482e-06
 Reference value :  5.25578e-06
 Reference value :  5.25688e-06
 Reference value :  5.25797e-06
 Reference value :  5.25905e-06
 Reference value :  5.26083e-06
 Reference value :  5.26259e-06
 Reference value :  5.26540e-06
 Reference value :  5.26895e-06
 Reference value :  5.27424e-06
 Reference value :  5.28484e-06
 Reference value :  5.30323e-06
 Reference value :  5.33670e-06
 Reference value :  5.40365e-06
 Reference value :  5.50000e-06
 Reference value :  5.50001e-06
 Reference value :  5.50003e-06
 Reference value :  5.50007e-06
 Reference value :  5.50010e-06
 Reference value :  5.50010e-06
 Reference value :  5.50011e-06
 Reference value :  5.50013e-06
 Reference value :  5.50016e-06
 Reference value :  5.50023e-06
 Reference value :  5.50037e-06
 Reference value :  5.50056e-06
 Reference value :  5.50093e-06
 Reference value :  5.50161e-06
 Reference value :  5.50223e-06
 Reference value :  5.50291e-06
 Reference value :  5.50363e-06
 Reference value :  5.50438e-06
 Reference value :  5.50523e-06
 Reference value :  5.50615e-06
 Reference value :  5.50718e-06
 Reference value :  5.50852e-06
 Reference value :  5.50990e-06
 Reference value :  5.51134e-06
 Reference value :  5.51291e-06
 Reference value :  5.51459e-06
 Reference value :  5.51617e-06
 Reference value :  5.51781e-06
 Reference value :  5.51961e-06
 Reference value :  5.52164e-06
 Reference value :  5.52529e-06
 Reference value :  5.53066e-06
 Reference value :  5.54106e-06
 Reference value :  5.56063e-06
 Reference value :  5.59755e-06
 Reference value :  5.67139e-06
 Reference value :  5.75010e-06
 Reference value :  5.75011e-06
 Reference value :  5.75013e-06
 Reference value :  5.75017e-06
 Reference value :  5.75020e-06
 Reference value :  5.75020e-06
 Reference value :  5.75020e-06
 Reference value :  5.75021e-06
 Reference value :  5.75021e-06
 Reference value :  5.75022e-06
 Reference value :  5.75025e-06
 Reference value :  5.75030e-06
 Reference value :  5.75039e-06
 Reference value :  5.75059e-06
 Reference value :  5.75093e-06
 Reference value :  5.75154e-06
 Reference value :  5.75216e-06
 Reference value :  5.75294e-06
 Reference value :  5.75375e-06
 Reference value :  5.75481e-06
 Reference value :  5.75575e-06
 Reference value :  5.75683e-06
 Reference value :  5.75778e-06
 Reference value :  5.75878e-06
 Reference value :  5.75992e-06
 Reference value :  5.76120e-06
 Reference value :  5.76375e-06
 Reference value :  5.76658e-06
 Reference value :  5.77112e-06
 Reference value :  5.77730e-06
 Reference value :  5.78965e-06
 Reference value :  5.81436e-06
 Reference value :  5.86377e-06
 Reference value :  5.96261e-06
 Reference value :  6.00000e-06
 Reference value :  6.00001e-06
 Reference value :  6.00003e-06
 Reference value :  6.00007e-06
 Reference value :  6.00010e-06
 Reference value :  6.00010e-06
 Reference value :  6.00011e-06
 Reference value :  6.00013e-06
 Reference value :  6.00016e-06
 Reference value :  6.00023e-06
 Reference value :  6.00037e-06
 Reference value :  6.00055e-06
 Reference value :  6.00092e-06
 Reference value :  6.00160e-06
 Reference value :  6.00223e-06
 Reference value :  6.00291e-06
 Reference value :  6.00363e-06
 Reference value :  6.00439e-06
 Reference value :  6.00524e-06
 Reference value :  6.00615e-06
 Reference value :  6.00710e-06
 Reference value :  6.00813e-06
 Reference value :  6.00897e-06
 Reference value :  6.00997e-06
 Reference value :  6.01099e-06
 Reference value :  6.01228e-06
 Reference value :  6.01424e-06
 Reference value :  6.01725e-06
 Reference value :  6.02029e-06
 Reference value :  6.02269e-06
 Reference value :  6.02473e-06
 Reference value :  6.02668e-06
 Reference value :  6.02869e-06
 Reference value :  6.03068e-06
 Reference value :  6.03291e-06
 Reference value :  6.03520e-06
 Reference value :  6.03859e-06
 Reference value :  6.04298e-06
 Reference value :  6.04933e-06
 Reference value :  6.05563e-06
 Reference value :  6.06291e-06
 Reference value :  6.06865e-06
 Reference value :  6.07468e-06
 Reference value :  6.08226e-06
 Reference value :  6.08933e-06
 Reference value :  6.09615e-06
 Reference value :  6.10415e-06
 Reference value :  6.12016e-06
 Reference value :  6.14049e-06
 Reference value :  6.17729e-06
 Reference value :  6.23871e-06
 Reference value :  6.25010e-06
 Reference value :  6.25011e-06
 Reference value :  6.25013e-06
 Reference value :  6.25017e-06
 Reference value :  6.25020e-06
 Reference value :  6.25020e-06
 Reference value :  6.25020e-06
 Reference value :  6.25021e-06
 Reference value :  6.25021e-06
 Reference value :  6.25022e-06
 Reference value :  6.25025e-06
 Reference value :  6.25030e-06
 Reference value :  6.25040e-06
 Reference value :  6.25059e-06
 Reference value :  6.25094e-06
 Reference value :  6.25154e-06
 Reference value :  6.25218e-06
 Reference value :  6.25294e-06
 Reference value :  6.25377e-06
 Reference value :  6.25483e-06
 Reference value :  6.25570e-06
 Reference value :  6.25673e-06
 Reference value :  6.25770e-06
 Reference value :  6.25872e-06
 Reference value :  6.26042e-06
 Reference value :  6.26202e-06
 Reference value :  6.26486e-06
 Reference value :  6.26797e-06
 Reference value :  6.27300e-06
 Reference value :  6.28214e-06
 Reference value :  6.30041e-06
 Reference value :  6.33695e-06
 Reference value :  6.41004e-06
 Reference value :  6.50000e-06
 Reference value :  6.50001e-06
 Reference value :  6.50003e-06
 Reference value :  6.50007e-06
 Reference value :  6.50010e-06
 Reference value :  6.50010e-06
 Reference value :  6.50011e-06
 Reference value :  6.50013e-06
 Reference value :  6.50016e-06
 Reference value :  6.50023e-06
 Reference value :  6.50037e-06
 Reference value :  6.50056e-06
 Reference value :  6.50093e-06
 Reference value :  6.50161e-06
 Reference value :  6.50223e-06
 Reference value :  6.50286e-06
 Reference value :  6.50357e-06
 Reference value :  6.50431e-06
 Reference value :  6.50516e-06
 Reference value :  6.50606e-06
 Reference value :  6.50701e-06
 Reference value :  6.50838e-06
 Reference value :  6.50964e-06
 Reference value :  6.51122e-06
 Reference value :  6.51252e-06
 Reference value :  6.51392e-06
 Reference value :  6.51526e-06
 Reference value :  6.51687e-06
 Reference value :  6.51854e-06
 Reference value :  6.52034e-06
 Reference value :  6.52394e-06
 Reference value :  6.53113e-06
 Reference value :  6.54428e-06
 Reference value :  6.57056e-06
 Reference value :  6.62314e-06
 Reference value :  6.72829e-06
 Reference value :  6.75010e-06
 Reference value :  6.75011e-06
 Reference value :  6.75013e-06
 Reference value :  6.75017e-06
 Reference value :  6.75020e-06
 Reference value :  6.75020e-06
 Reference value :  6.75020e-06
 Reference value :  6.75021e-06
 Reference value :  6.75021e-06
 Reference value :  6.75022e-06
 Reference value :  6.75025e-06
 Reference value :  6.75030e-06
 Reference value :  6.75039e-06
 Reference value :  6.75059e-06
 Reference value :  6.75093e-06
 Reference value :  6.75154e-06
 Reference value :  6.75216e-06
 Reference value :  6.75294e-06
 Reference value :  6.75375e-06
 Reference value :  6.75481e-06
 Reference value :  6.75574e-06
 Reference value :  6.75682e-06
 Reference value :  6.75776e-06
 Reference value :  6.75876e-06
 Reference value :  6.75989e-06
 Reference value :  6.76117e-06
 Reference value :  6.76248e-06
 Reference value :  6.76425e-06
 Reference value :  6.76656e-06
 Reference value :  6.76932e-06
 Reference value :  6.77306e-06
 Reference value :  6.77829e-06
 Reference value :  6.78876e-06
 Reference value :  6.80830e-06
 Reference value :  6.84738e-06
 Reference value :  6.92554e-06
 Reference value :  7.00000e-06
 Reference value :  7.00001e-06
 Reference value :  7.00003e-06
 Reference value :  7.00007e-06
 Reference value :  7.00010e-06
 Reference value :  7.00010e-06
 Reference value :  7.00011e-06
 Reference value :  7.00013e-06
 Reference value :  7.00016e-06
 Reference value :  7.00023e-06
 Reference value :  7.00037e-06
 Reference value :  7.00055e-06
 Reference value :  7.00092e-06
 Reference value :  7.00160e-06
 Reference value :  7.00223e-06
 Reference value :  7.00291e-06
 Reference value :  7.00363e-06
 Reference value :  7.00438e-06
 Reference value :  7.00522e-06
 Reference value :  7.00613e-06
 Reference value :  7.00697e-06
 Reference value :  7.00786e-06
 Reference value :  7.00876e-06
 Reference value :  7.00973e-06
 Reference value :  7.01072e-06
 Reference value :  7.01207e-06
 Reference value :  7.01371e-06
 Reference value :  7.01601e-06
 Reference value :  7.01767e-06
 Reference value :  7.01944e-06
 Reference value :  7.02102e-06
 Reference value :  7.02284e-06
 Reference value :  7.02438e-06
 Reference value :  7.02602e-06
 Reference value :  7.02763e-06
 Reference value :  7.02913e-06
 Reference value :  7.03069e-06
 Reference value :  7.03253e-06
 Reference value :  7.03509e-06
 Reference value :  7.03748e-06
 Reference value :  7.03983e-06
 Reference value :  7.04235e-06
 Reference value :  7.04494e-06
 Reference value :  7.04850e-06
 Reference value :  7.05232e-06
 Reference value :  7.05995e-06
 Reference value :  7.07130e-06
 Reference value :  7.09308e-06
 Reference value :  7.13136e-06
 Reference value :  7.17149e-06
 Reference value :  7.25010e-06
 Reference value :  7.25011e-06
 Reference value :  7.25013e-06
 Reference value :  7.25017e-06
 Reference value :  7.25020e-06
 Reference value :  7.25020e-06
 Reference value :  7.25020e-06
 Reference value :  7.25021e-06
 Reference value :  7.25021e-06
 Reference value :  7.25022e-06
 Reference value :  7.25025e-06
 Reference value :  7.25030e-06
 Reference value :  7.25039e-06
 Reference value :  7.25059e-06
 Reference value :  7.25093e-06
 Reference value :  7.25154e-06
 Reference value :  7.25217e-06
 Reference value :  7.25294e-06
 Reference value :  7.25375e-06
 Reference value :  7.25482e-06
 Reference value :  7.25574e-06
 Reference value :  7.25680e-06
 Reference value :  7.25792e-06
 Reference value :  7.25896e-06
 Reference value :  7.26077e-06
 Reference value :  7.26246e-06
 Reference value :  7.26528e-06
 Reference value :  7.26872e-06
 Reference value :  7.27393e-06
 Reference value :  7.28436e-06
 Reference value :  7.30299e-06
 Reference value :  7.33697e-06
 Reference value :  7.40495e-06
 Reference value :  7.50000e-06
 Reference value :  7.50001e-06
 Reference value :  7.50003e-06
 Reference value :  7.50007e-06
 Reference value :  7.50010e-06
 Reference value :  7.50010e-06
 Reference value :  7.50011e-06
 Reference value :  7.50013e-06
 Reference value :  7.50016e-06
 Reference value :  7.50023e-06
 Reference value :  7.50037e-06
 Reference value :  7.50056e-06
 Reference value :  7.50093e-06
 Reference value :  7.50152e-06
 Reference value :  7.50214e-06
 Reference value :  7.50284e-06
 Reference value :  7.50356e-06
 Reference value :  7.50432e-06
 Reference value :  7.50517e-06
 Reference value :  7.50609e-06
 Reference value :  7.50713e-06
 Reference value :  7.50846e-06
 Reference value :  7.50984e-06
 Reference value :  7.51154e-06
 Reference value :  7.51306e-06
 Reference value :  7.51464e-06
 Reference value :  7.51607e-06
 Reference value :  7.51769e-06
 Reference value :  7.51929e-06
 Reference value :  7.52115e-06
 Reference value :  7.52488e-06
 Reference value :  7.53129e-06
 Reference value :  7.54412e-06
 Reference value :  7.56977e-06
 Reference value :  7.62107e-06
 Reference value :  7.72368e-06
 Reference value :  7.75010e-06
 Reference value :  7.75011e-06
 Reference value :  7.75013e-06
 Reference value :  7.75017e-06
 Reference value :  7.75020e-06
 Reference value :  7.75020e-06
 Reference value :  7.75020e-06
 Reference value :  7.75021e-06
 Reference value :  7.75021e-06
 Reference value :  7.75022e-06
 Reference value :  7.75025e-06
 Reference value :  7.75030e-06
 Reference value :  7.75039e-06
 Reference value :  7.75059e-06
 Reference value :  7.75093e-06
 Reference value :  7.75154e-06
 Reference value :  7.75217e-06
 Reference value :  7.75294e-06
 Reference value :  7.75375e-06
 Reference value :  7.75482e-06
 Reference value :  7.75571e-06
 Reference value :  7.75676e-06
 Reference value :  7.75767e-06
 Reference value :  7.75865e-06
 Reference value :  7.75976e-06
 Reference value :  7.76102e-06
 Reference value :  7.76352e-06
 Reference value :  7.76625e-06
 Reference value :  7.77068e-06
 Reference value :  7.77645e-06
 Reference value :  7.78800e-06
 Reference value :  7.81110e-06
 Reference value :  7.85730e-06
 Reference value :  7.94970e-06
 Reference value :  8.00000e-06
 Reference value :  8.00001e-06
 Reference value :  8.00003e-06
 Reference value :  8.00007e-06
 Reference value :  8.00010e-06
 Reference value :  8.00010e-06
 Reference value :  8.00011e-06
 Reference value :  8.00013e-06
 Reference value :  8.00016e-06
 Reference value :  8.00023e-06
 Reference value :  8.00037e-06
 Reference value :  8.00055e-06
 Reference value :  8.00092e-06
 Reference value :  8.00151e-06
 Reference value :  8.00214e-06
 Reference value :  8.00284e-06
 Reference value :  8.00357e-06
 Reference value :  8.00433e-06
 Reference value :  8.00517e-06
 Reference value :  8.00609e-06
 Reference value :  8.00702e-06
 Reference value :  8.00803e-06
 Reference value :  8.00897e-06
 Reference value :  8.00995e-06
 Reference value :  8.01097e-06
 Reference value :  8.01231e-06
 Reference value :  8.01413e-06
 Reference value :  8.01685e-06
 Reference value :  8.02022e-06
 Reference value :  8.02271e-06
 Reference value :  8.02546e-06
 Reference value :  8.02813e-06
 Reference value :  8.03121e-06
 Reference value :  8.03586e-06
 Reference value :  8.04193e-06
 Reference value :  8.05211e-06
 Reference value :  8.06822e-06
 Reference value :  8.09503e-06
 Reference value :  8.14682e-06
 Reference value :  8.24910e-06
 Reference value :  8.25010e-06
 Reference value :  8.25011e-06
 Reference value :  8.25013e-06
 Reference value :  8.25017e-06
 Reference value :  8.25020e-06
 Reference value :  8.25020e-06
 Reference value :  8.25020e-06
 Reference value :  8.25021e-06
 Reference value :  8.25021e-06
 Reference value :  8.25022e-06
 Reference value :  8.25025e-06
 Reference value :  8.25030e-06
 Reference value :  8.25039e-06
 Reference value :  8.25059e-06
 Reference value :  8.25097e-06
 Reference value :  8.25154e-06
 Reference value :  8.25221e-06
 Reference value :  8.25295e-06
 Reference value :  8.25379e-06
 Reference value :  8.25485e-06
 Reference value :  8.25616e-06
 Reference value :  8.25753e-06
 Reference value :  8.25911e-06
 Reference value :  8.26083e-06
 Reference value :  8.26340e-06
 Reference value :  8.26637e-06
 Reference value :  8.27042e-06
 Reference value :  8.27625e-06
 Reference value :  8.28791e-06
 Reference value :  8.31124e-06
 Reference value :  8.35744e-06
 Reference value :  8.44984e-06
 Reference value :  8.50000e-06
 Reference value :  8.50001e-06
 Reference value :  8.50003e-06
 Reference value :  8.50007e-06
 Reference value :  8.50010e-06
 Reference value :  8.50010e-06
 Reference value :  8.50011e-06
 Reference value :  8.50013e-06
 Reference value :  8.50016e-06
 Reference value :  8.50023e-06
 Reference value :  8.50037e-06
 Reference value :  8.50064e-06
 Reference value :  8.50111e-06
 Reference value :  8.50187e-06
 Reference value :  8.50271e-06
 Reference value :  8.50338e-06
 Reference value :  8.50424e-06
 Reference value :  8.50514e-06
 Reference value :  8.50606e-06
 Reference value :  8.50708e-06
 Reference value :  8.50859e-06
 Reference value :  8.51017e-06
 Reference value :  8.51269e-06
 Reference value :  8.51434e-06
 Reference value :  8.51623e-06
 Reference value :  8.51914e-06
 Reference value :  8.52188e-06
 Reference value :  8.52525e-06
 Reference value :  8.53198e-06
 Reference value :  8.53866e-06
 Reference value :  8.54353e-06
 Reference value :  8.54747e-06
 Reference value :  8.55114e-06
 Reference value :  8.55419e-06
 Reference value :  8.55671e-06
 Reference value :  8.55924e-06
 Reference value :  8.56191e-06
 Reference value :  8.56465e-06
 Reference value :  8.56774e-06
 Reference value :  8.57106e-06
 Reference value :  8.57618e-06
 Reference value :  8.58370e-06
 Reference value :  8.59269e-06
 Reference value :  8.60258e-06
 Reference value :  8.61858e-06
 Reference value :  8.64578e-06
 Reference value :  8.67446e-06
 Reference value :  8.69619e-06
 Reference value :  8.72202e-06
 Reference value :  8.75010e-06
 Reference value :  8.75011e-06
 Reference value :  8.75013e-06
 Reference value :  8.75017e-06
 Reference value :  8.75020e-06
 Reference value :  8.75020e-06
 Reference value :  8.75020e-06
 Reference value :  8.75021e-06
 Reference value :  8.75021e-06
 Reference value :  8.75022e-06
 Reference value :  8.75025e-06
 Reference value :  8.75030e-06
 Reference value :  8.75040e-06
 Reference value :  8.75059e-06
 Reference value :  8.75098e-06
 Reference value :  8.75155e-06
 Reference value :  8.75223e-06
 Reference value :  8.75299e-06
 Reference value :  8.75380e-06
 Reference value :  8.75492e-06
 Reference value :  8.75586e-06
 Reference value :  8.75693e-06
 Reference value :  8.75793e-06
 Reference value :  8.75897e-06
 Reference value :  8.76065e-06
 Reference value :  8.76235e-06
 Reference value :  8.76505e-06
 Reference value :  8.76851e-06
 Reference value :  8.77353e-06
 Reference value :  8.78359e-06
 Reference value :  8.80089e-06
 Reference value :  8.83197e-06
 Reference value :  8.89391e-06
 Reference value :  9.00000e-06
No. of Data Rows : 1413
ngspice-44 done
