
Note: Compatibility modes selected: hs a


Circuit: ** sch_path: /home/samantha/cace/sar-adc-using-sky130-pdk/runs/run_2025-09-08_19-13-21/parameters/sampling_rate/run_4/sampling_rate.sch

option SCALE: Scale is set to 1e-06 for instance and model parameters
option SCALE: Scale is set to 1e-06 for instance and model parameters
option SCALE: Scale is set to 1e-06 for instance and model parameters
option SCALE: Scale is set to 1e-06 for instance and model parameters
Doing analysis at TEMP = 27.000000 and TNOM = 27.000000

Using KLU as Direct Linear Solver
Operating point simulation skipped by 'uic',
  now using transient initial conditions.
 Reference value :  1.00000e-12
 Reference value :  1.02772e-12
 Reference value :  1.08316e-12
 Reference value :  1.19404e-12
 Reference value :  1.33846e-12
 Reference value :  1.62729e-12
 Reference value :  2.20497e-12
 Reference value :  3.05090e-12
 Reference value :  3.95643e-12
 Reference value :  5.17336e-12
 Reference value :  6.90473e-12
 Reference value :  1.02118e-11
 Reference value :  1.38942e-11
 Reference value :  2.07979e-11
 Reference value :  2.75078e-11
 Reference value :  3.66130e-11
 Reference value :  4.75750e-11
 Reference value :  6.53963e-11
 Reference value :  8.61845e-11
 Reference value :  1.00000e-10
 Reference value :  1.01126e-10
 Reference value :  1.03377e-10
 Reference value :  1.07879e-10
 Reference value :  1.16883e-10
 Reference value :  1.34891e-10
 Reference value :  1.70907e-10
 Reference value :  2.42940e-10
 Reference value :  3.87006e-10
 Reference value :  5.45653e-10
 Reference value :  7.98014e-10
 Reference value :  1.13492e-09
 Reference value :  1.55605e-09
 Reference value :  2.17381e-09
 Reference value :  2.82122e-09
 Reference value :  3.89104e-09
 Reference value :  4.69732e-09
 Reference value :  5.55643e-09
 Reference value :  6.63736e-09
 Reference value :  7.74259e-09
 Reference value :  9.03224e-09
 Reference value :  9.93081e-09
 Reference value :  1.07870e-08
 Reference value :  1.17002e-08
 Reference value :  1.26999e-08
 Reference value :  1.46993e-08
 Reference value :  1.81058e-08
 Reference value :  2.23067e-08
 Reference value :  2.73394e-08
 Reference value :  3.13231e-08
 Reference value :  3.54349e-08
 Reference value :  3.88185e-08
 Reference value :  4.23452e-08
 Reference value :  4.65354e-08
 Reference value :  5.27106e-08
 Reference value :  6.16529e-08
 Reference value :  7.92273e-08
 Reference value :  1.07460e-07
 Reference value :  1.62565e-07
 Reference value :  2.32333e-07
 Reference value :  2.50100e-07
 Reference value :  2.50110e-07
 Reference value :  2.50130e-07
 Reference value :  2.50170e-07
 Reference value :  2.50200e-07
 Reference value :  2.50201e-07
 Reference value :  2.50202e-07
 Reference value :  2.50204e-07
 Reference value :  2.50208e-07
 Reference value :  2.50216e-07
 Reference value :  2.50233e-07
 Reference value :  2.50267e-07
 Reference value :  2.50334e-07
 Reference value :  2.50415e-07
 Reference value :  2.50578e-07
 Reference value :  2.50739e-07
 Reference value :  2.51063e-07
 Reference value :  2.51432e-07
 Reference value :  2.52000e-07
 Reference value :  2.52605e-07
 Reference value :  2.53306e-07
 Reference value :  2.54251e-07
 Reference value :  2.55267e-07
 Reference value :  2.56209e-07
 Reference value :  2.57137e-07
 Reference value :  2.58161e-07
 Reference value :  2.59137e-07
 Reference value :  2.60806e-07
 Reference value :  2.63151e-07
 Reference value :  2.65566e-07
 Reference value :  2.69724e-07
 Reference value :  2.75757e-07
 Reference value :  2.87823e-07
 Reference value :  3.11955e-07
 Reference value :  3.56893e-07
 Reference value :  4.46768e-07
 Reference value :  5.00000e-07
 Reference value :  5.00010e-07
 Reference value :  5.00030e-07
 Reference value :  5.00070e-07
 Reference value :  5.00100e-07
 Reference value :  5.00104e-07
 Reference value :  5.00113e-07
 Reference value :  5.00130e-07
 Reference value :  5.00164e-07
 Reference value :  5.00231e-07
 Reference value :  5.00367e-07
 Reference value :  5.00555e-07
 Reference value :  5.00931e-07
 Reference value :  5.01441e-07
 Reference value :  5.01988e-07
 Reference value :  5.02572e-07
 Reference value :  5.03299e-07
 Reference value :  5.03988e-07
 Reference value :  5.04868e-07
 Reference value :  5.05732e-07
 Reference value :  5.06712e-07
 Reference value :  5.07962e-07
 Reference value :  5.09473e-07
 Reference value :  5.11506e-07
 Reference value :  5.13937e-07
 Reference value :  5.15835e-07
 Reference value :  5.17886e-07
 Reference value :  5.20499e-07
 Reference value :  5.23122e-07
 Reference value :  5.25907e-07
 Reference value :  5.31216e-07
 Reference value :  5.38401e-07
 Reference value :  5.48666e-07
 Reference value :  5.69196e-07
 Reference value :  5.99927e-07
 Reference value :  6.61391e-07
 Reference value :  7.50100e-07
 Reference value :  7.50110e-07
 Reference value :  7.50130e-07
 Reference value :  7.50170e-07
 Reference value :  7.50200e-07
 Reference value :  7.50201e-07
 Reference value :  7.50202e-07
 Reference value :  7.50205e-07
 Reference value :  7.50211e-07
 Reference value :  7.50223e-07
 Reference value :  7.50247e-07
 Reference value :  7.50295e-07
 Reference value :  7.50390e-07
 Reference value :  7.50580e-07
 Reference value :  7.50956e-07
 Reference value :  7.51478e-07
 Reference value :  7.52136e-07
 Reference value :  7.52787e-07
 Reference value :  7.53536e-07
 Reference value :  7.54575e-07
 Reference value :  7.55319e-07
 Reference value :  7.56167e-07
 Reference value :  7.56918e-07
 Reference value :  7.57752e-07
 Reference value :  7.58784e-07
 Reference value :  7.59912e-07
 Reference value :  7.62169e-07
 Reference value :  7.64635e-07
 Reference value :  7.68698e-07
 Reference value :  7.74006e-07
 Reference value :  7.84623e-07
 Reference value :  8.05856e-07
 Reference value :  8.48322e-07
 Reference value :  9.33255e-07
 Reference value :  1.00000e-06
 Reference value :  1.00001e-06
 Reference value :  1.00003e-06
 Reference value :  1.00007e-06
 Reference value :  1.00010e-06
 Reference value :  1.00010e-06
 Reference value :  1.00011e-06
 Reference value :  1.00013e-06
 Reference value :  1.00016e-06
 Reference value :  1.00023e-06
 Reference value :  1.00037e-06
 Reference value :  1.00055e-06
 Reference value :  1.00093e-06
 Reference value :  1.00144e-06
 Reference value :  1.00198e-06
 Reference value :  1.00256e-06
 Reference value :  1.00321e-06
 Reference value :  1.00388e-06
 Reference value :  1.00467e-06
 Reference value :  1.00549e-06
 Reference value :  1.00635e-06
 Reference value :  1.00731e-06
 Reference value :  1.00811e-06
 Reference value :  1.00905e-06
 Reference value :  1.00998e-06
 Reference value :  1.01119e-06
 Reference value :  1.01294e-06
 Reference value :  1.01554e-06
 Reference value :  1.01799e-06
 Reference value :  1.02017e-06
 Reference value :  1.02200e-06
 Reference value :  1.02397e-06
 Reference value :  1.02579e-06
 Reference value :  1.02762e-06
 Reference value :  1.02996e-06
 Reference value :  1.03217e-06
 Reference value :  1.03521e-06
 Reference value :  1.03941e-06
 Reference value :  1.04517e-06
 Reference value :  1.05440e-06
 Reference value :  1.06831e-06
 Reference value :  1.09078e-06
 Reference value :  1.12710e-06
 Reference value :  1.18568e-06
 Reference value :  1.25010e-06
 Reference value :  1.25011e-06
 Reference value :  1.25013e-06
 Reference value :  1.25017e-06
 Reference value :  1.25020e-06
 Reference value :  1.25020e-06
 Reference value :  1.25020e-06
 Reference value :  1.25021e-06
 Reference value :  1.25021e-06
 Reference value :  1.25022e-06
 Reference value :  1.25025e-06
 Reference value :  1.25029e-06
 Reference value :  1.25039e-06
 Reference value :  1.25058e-06
 Reference value :  1.25091e-06
 Reference value :  1.25146e-06
 Reference value :  1.25208e-06
 Reference value :  1.25276e-06
 Reference value :  1.25349e-06
 Reference value :  1.25452e-06
 Reference value :  1.25527e-06
 Reference value :  1.25613e-06
 Reference value :  1.25702e-06
 Reference value :  1.25795e-06
 Reference value :  1.25925e-06
 Reference value :  1.26108e-06
 Reference value :  1.26327e-06
 Reference value :  1.26648e-06
 Reference value :  1.27075e-06
 Reference value :  1.27929e-06
 Reference value :  1.29638e-06
 Reference value :  1.32620e-06
 Reference value :  1.38584e-06
 Reference value :  1.49965e-06
 Reference value :  1.50000e-06
 Reference value :  1.50001e-06
 Reference value :  1.50002e-06
 Reference value :  1.50004e-06
 Reference value :  1.50008e-06
 Reference value :  1.50010e-06
 Reference value :  1.50010e-06
 Reference value :  1.50011e-06
 Reference value :  1.50012e-06
 Reference value :  1.50014e-06
 Reference value :  1.50019e-06
 Reference value :  1.50028e-06
 Reference value :  1.50044e-06
 Reference value :  1.50068e-06
 Reference value :  1.50118e-06
 Reference value :  1.50183e-06
 Reference value :  1.50253e-06
 Reference value :  1.50319e-06
 Reference value :  1.50391e-06
 Reference value :  1.50470e-06
 Reference value :  1.50554e-06
 Reference value :  1.50646e-06
 Reference value :  1.50771e-06
 Reference value :  1.50897e-06
 Reference value :  1.51016e-06
 Reference value :  1.51149e-06
 Reference value :  1.51297e-06
 Reference value :  1.51452e-06
 Reference value :  1.51620e-06
 Reference value :  1.51821e-06
 Reference value :  1.52005e-06
 Reference value :  1.52372e-06
 Reference value :  1.53107e-06
 Reference value :  1.54515e-06
 Reference value :  1.57332e-06
 Reference value :  1.62965e-06
 Reference value :  1.74232e-06
 Reference value :  1.75010e-06
 Reference value :  1.75011e-06
 Reference value :  1.75013e-06
 Reference value :  1.75017e-06
 Reference value :  1.75020e-06
 Reference value :  1.75020e-06
 Reference value :  1.75020e-06
 Reference value :  1.75021e-06
 Reference value :  1.75021e-06
 Reference value :  1.75022e-06
 Reference value :  1.75025e-06
 Reference value :  1.75029e-06
 Reference value :  1.75039e-06
 Reference value :  1.75058e-06
 Reference value :  1.75091e-06
 Reference value :  1.75146e-06
 Reference value :  1.75209e-06
 Reference value :  1.75275e-06
 Reference value :  1.75348e-06
 Reference value :  1.75451e-06
 Reference value :  1.75524e-06
 Reference value :  1.75610e-06
 Reference value :  1.75684e-06
 Reference value :  1.75766e-06
 Reference value :  1.75867e-06
 Reference value :  1.75979e-06
 Reference value :  1.76203e-06
 Reference value :  1.76440e-06
 Reference value :  1.76838e-06
 Reference value :  1.77335e-06
 Reference value :  1.78328e-06
 Reference value :  1.80314e-06
 Reference value :  1.84285e-06
 Reference value :  1.92228e-06
 Reference value :  2.00000e-06
 Reference value :  2.00001e-06
 Reference value :  2.00003e-06
 Reference value :  2.00007e-06
 Reference value :  2.00010e-06
 Reference value :  2.00010e-06
 Reference value :  2.00011e-06
 Reference value :  2.00013e-06
 Reference value :  2.00016e-06
 Reference value :  2.00023e-06
 Reference value :  2.00037e-06
 Reference value :  2.00054e-06
 Reference value :  2.00090e-06
 Reference value :  2.00141e-06
 Reference value :  2.00196e-06
 Reference value :  2.00255e-06
 Reference value :  2.00320e-06
 Reference value :  2.00387e-06
 Reference value :  2.00463e-06
 Reference value :  2.00545e-06
 Reference value :  2.00635e-06
 Reference value :  2.00728e-06
 Reference value :  2.00814e-06
 Reference value :  2.00905e-06
 Reference value :  2.00999e-06
 Reference value :  2.01123e-06
 Reference value :  2.01292e-06
 Reference value :  2.01555e-06
 Reference value :  2.01806e-06
 Reference value :  2.02023e-06
 Reference value :  2.02202e-06
 Reference value :  2.02375e-06
 Reference value :  2.02560e-06
 Reference value :  2.02732e-06
 Reference value :  2.02946e-06
 Reference value :  2.03163e-06
 Reference value :  2.03428e-06
 Reference value :  2.03812e-06
 Reference value :  2.04348e-06
 Reference value :  2.05204e-06
 Reference value :  2.06558e-06
 Reference value :  2.08755e-06
 Reference value :  2.12418e-06
 Reference value :  2.18000e-06
 Reference value :  2.21989e-06
 Reference value :  2.25010e-06
 Reference value :  2.25011e-06
 Reference value :  2.25013e-06
 Reference value :  2.25017e-06
 Reference value :  2.25020e-06
 Reference value :  2.25020e-06
 Reference value :  2.25020e-06
 Reference value :  2.25021e-06
 Reference value :  2.25021e-06
 Reference value :  2.25022e-06
 Reference value :  2.25025e-06
 Reference value :  2.25030e-06
 Reference value :  2.25039e-06
 Reference value :  2.25059e-06
 Reference value :  2.25093e-06
 Reference value :  2.25146e-06
 Reference value :  2.25210e-06
 Reference value :  2.25276e-06
 Reference value :  2.25350e-06
 Reference value :  2.25452e-06
 Reference value :  2.25523e-06
 Reference value :  2.25605e-06
 Reference value :  2.25696e-06
 Reference value :  2.25790e-06
 Reference value :  2.25913e-06
 Reference value :  2.26118e-06
 Reference value :  2.26328e-06
 Reference value :  2.26658e-06
 Reference value :  2.27074e-06
 Reference value :  2.27907e-06
 Reference value :  2.29573e-06
 Reference value :  2.31144e-06
 Reference value :  2.32947e-06
 Reference value :  2.34174e-06
 Reference value :  2.35315e-06
 Reference value :  2.36161e-06
 Reference value :  2.37109e-06
 Reference value :  2.38747e-06
 Reference value :  2.40403e-06
 Reference value :  2.43274e-06
 Reference value :  2.47134e-06
 Reference value :  2.50000e-06
 Reference value :  2.50001e-06
 Reference value :  2.50003e-06
 Reference value :  2.50007e-06
 Reference value :  2.50010e-06
 Reference value :  2.50010e-06
 Reference value :  2.50011e-06
 Reference value :  2.50013e-06
 Reference value :  2.50016e-06
 Reference value :  2.50023e-06
 Reference value :  2.50037e-06
 Reference value :  2.50055e-06
 Reference value :  2.50091e-06
 Reference value :  2.50142e-06
 Reference value :  2.50197e-06
 Reference value :  2.50255e-06
 Reference value :  2.50320e-06
 Reference value :  2.50387e-06
 Reference value :  2.50464e-06
 Reference value :  2.50546e-06
 Reference value :  2.50638e-06
 Reference value :  2.50756e-06
 Reference value :  2.50881e-06
 Reference value :  2.51008e-06
 Reference value :  2.51148e-06
 Reference value :  2.51304e-06
 Reference value :  2.51462e-06
 Reference value :  2.51619e-06
 Reference value :  2.51783e-06
 Reference value :  2.51967e-06
 Reference value :  2.52334e-06
 Reference value :  2.53068e-06
 Reference value :  2.54366e-06
 Reference value :  2.56963e-06
 Reference value :  2.62157e-06
 Reference value :  2.72545e-06
 Reference value :  2.75010e-06
 Reference value :  2.75011e-06
 Reference value :  2.75013e-06
 Reference value :  2.75017e-06
 Reference value :  2.75020e-06
 Reference value :  2.75020e-06
 Reference value :  2.75020e-06
 Reference value :  2.75021e-06
 Reference value :  2.75021e-06
 Reference value :  2.75022e-06
 Reference value :  2.75025e-06
 Reference value :  2.75029e-06
 Reference value :  2.75039e-06
 Reference value :  2.75058e-06
 Reference value :  2.75091e-06
 Reference value :  2.75145e-06
 Reference value :  2.75208e-06
 Reference value :  2.75275e-06
 Reference value :  2.75348e-06
 Reference value :  2.75450e-06
 Reference value :  2.75524e-06
 Reference value :  2.75609e-06
 Reference value :  2.75683e-06
 Reference value :  2.75765e-06
 Reference value :  2.75866e-06
 Reference value :  2.75978e-06
 Reference value :  2.76202e-06
 Reference value :  2.76438e-06
 Reference value :  2.76836e-06
 Reference value :  2.77330e-06
 Reference value :  2.78318e-06
 Reference value :  2.80294e-06
 Reference value :  2.84212e-06
 Reference value :  2.92048e-06
 Reference value :  3.00000e-06
 Reference value :  3.00001e-06
 Reference value :  3.00003e-06
 Reference value :  3.00007e-06
 Reference value :  3.00010e-06
 Reference value :  3.00010e-06
 Reference value :  3.00011e-06
 Reference value :  3.00013e-06
 Reference value :  3.00016e-06
 Reference value :  3.00023e-06
 Reference value :  3.00037e-06
 Reference value :  3.00054e-06
 Reference value :  3.00090e-06
 Reference value :  3.00141e-06
 Reference value :  3.00196e-06
 Reference value :  3.00255e-06
 Reference value :  3.00319e-06
 Reference value :  3.00387e-06
 Reference value :  3.00463e-06
 Reference value :  3.00545e-06
 Reference value :  3.00630e-06
 Reference value :  3.00723e-06
 Reference value :  3.00809e-06
 Reference value :  3.00900e-06
 Reference value :  3.00994e-06
 Reference value :  3.01117e-06
 Reference value :  3.01284e-06
 Reference value :  3.01546e-06
 Reference value :  3.01792e-06
 Reference value :  3.02008e-06
 Reference value :  3.02179e-06
 Reference value :  3.02340e-06
 Reference value :  3.02524e-06
 Reference value :  3.02690e-06
 Reference value :  3.02883e-06
 Reference value :  3.03082e-06
 Reference value :  3.03367e-06
 Reference value :  3.03737e-06
 Reference value :  3.04219e-06
 Reference value :  3.04755e-06
 Reference value :  3.05250e-06
 Reference value :  3.05661e-06
 Reference value :  3.06110e-06
 Reference value :  3.06554e-06
 Reference value :  3.07021e-06
 Reference value :  3.07680e-06
 Reference value :  3.08308e-06
 Reference value :  3.08922e-06
 Reference value :  3.09679e-06
 Reference value :  3.11192e-06
 Reference value :  3.13995e-06
 Reference value :  3.19026e-06
 Reference value :  3.22115e-06
 Reference value :  3.25010e-06
 Reference value :  3.25011e-06
 Reference value :  3.25013e-06
 Reference value :  3.25017e-06
 Reference value :  3.25020e-06
 Reference value :  3.25020e-06
 Reference value :  3.25020e-06
 Reference value :  3.25021e-06
 Reference value :  3.25021e-06
 Reference value :  3.25022e-06
 Reference value :  3.25025e-06
 Reference value :  3.25030e-06
 Reference value :  3.25039e-06
 Reference value :  3.25059e-06
 Reference value :  3.25093e-06
 Reference value :  3.25146e-06
 Reference value :  3.25210e-06
 Reference value :  3.25276e-06
 Reference value :  3.25349e-06
 Reference value :  3.25452e-06
 Reference value :  3.25523e-06
 Reference value :  3.25605e-06
 Reference value :  3.25694e-06
 Reference value :  3.25787e-06
 Reference value :  3.25911e-06
 Reference value :  3.26109e-06
 Reference value :  3.26321e-06
 Reference value :  3.26643e-06
 Reference value :  3.27061e-06
 Reference value :  3.27897e-06
 Reference value :  3.29570e-06
 Reference value :  3.32483e-06
 Reference value :  3.38310e-06
 Reference value :  3.49547e-06
 Reference value :  3.50000e-06
 Reference value :  3.50001e-06
 Reference value :  3.50003e-06
 Reference value :  3.50007e-06
 Reference value :  3.50010e-06
 Reference value :  3.50010e-06
 Reference value :  3.50011e-06
 Reference value :  3.50013e-06
 Reference value :  3.50016e-06
 Reference value :  3.50023e-06
 Reference value :  3.50037e-06
 Reference value :  3.50054e-06
 Reference value :  3.50090e-06
 Reference value :  3.50141e-06
 Reference value :  3.50196e-06
 Reference value :  3.50251e-06
 Reference value :  3.50321e-06
 Reference value :  3.50385e-06
 Reference value :  3.50462e-06
 Reference value :  3.50543e-06
 Reference value :  3.50629e-06
 Reference value :  3.50753e-06
 Reference value :  3.50870e-06
 Reference value :  3.51007e-06
 Reference value :  3.51160e-06
 Reference value :  3.51300e-06
 Reference value :  3.51435e-06
 Reference value :  3.51583e-06
 Reference value :  3.51731e-06
 Reference value :  3.51904e-06
 Reference value :  3.52249e-06
 Reference value :  3.52825e-06
 Reference value :  3.53978e-06
 Reference value :  3.56283e-06
 Reference value :  3.60894e-06
 Reference value :  3.70116e-06
 Reference value :  3.75010e-06
 Reference value :  3.75011e-06
 Reference value :  3.75013e-06
 Reference value :  3.75017e-06
 Reference value :  3.75020e-06
 Reference value :  3.75020e-06
 Reference value :  3.75020e-06
 Reference value :  3.75021e-06
 Reference value :  3.75021e-06
 Reference value :  3.75022e-06
 Reference value :  3.75025e-06
 Reference value :  3.75029e-06
 Reference value :  3.75039e-06
 Reference value :  3.75058e-06
 Reference value :  3.75091e-06
 Reference value :  3.75145e-06
 Reference value :  3.75208e-06
 Reference value :  3.75275e-06
 Reference value :  3.75348e-06
 Reference value :  3.75450e-06
 Reference value :  3.75523e-06
 Reference value :  3.75609e-06
 Reference value :  3.75683e-06
 Reference value :  3.75766e-06
 Reference value :  3.75866e-06
 Reference value :  3.75978e-06
 Reference value :  3.76091e-06
 Reference value :  3.76258e-06
 Reference value :  3.76443e-06
 Reference value :  3.76695e-06
 Reference value :  3.77014e-06
 Reference value :  3.77475e-06
 Reference value :  3.78396e-06
 Reference value :  3.79931e-06
 Reference value :  3.83001e-06
 Reference value :  3.89142e-06
 Reference value :  4.00000e-06
 Reference value :  4.00001e-06
 Reference value :  4.00003e-06
 Reference value :  4.00007e-06
 Reference value :  4.00010e-06
 Reference value :  4.00010e-06
 Reference value :  4.00011e-06
 Reference value :  4.00013e-06
 Reference value :  4.00016e-06
 Reference value :  4.00023e-06
 Reference value :  4.00037e-06
 Reference value :  4.00054e-06
 Reference value :  4.00090e-06
 Reference value :  4.00141e-06
 Reference value :  4.00196e-06
 Reference value :  4.00254e-06
 Reference value :  4.00319e-06
 Reference value :  4.00387e-06
 Reference value :  4.00463e-06
 Reference value :  4.00544e-06
 Reference value :  4.00622e-06
 Reference value :  4.00702e-06
 Reference value :  4.00788e-06
 Reference value :  4.00878e-06
 Reference value :  4.00969e-06
 Reference value :  4.01097e-06
 Reference value :  4.01246e-06
 Reference value :  4.01390e-06
 Reference value :  4.01546e-06
 Reference value :  4.01724e-06
 Reference value :  4.01886e-06
 Reference value :  4.02057e-06
 Reference value :  4.02181e-06
 Reference value :  4.02321e-06
 Reference value :  4.02454e-06
 Reference value :  4.02598e-06
 Reference value :  4.02767e-06
 Reference value :  4.02935e-06
 Reference value :  4.03225e-06
 Reference value :  4.03493e-06
 Reference value :  4.04029e-06
 Reference value :  4.05074e-06
 Reference value :  4.06252e-06
 Reference value :  4.07406e-06
 Reference value :  4.08378e-06
 Reference value :  4.08789e-06
 Reference value :  4.09213e-06
 Reference value :  4.09665e-06
 Reference value :  4.10392e-06
 Reference value :  4.11288e-06
 Reference value :  4.12576e-06
 Reference value :  4.14596e-06
 Reference value :  4.17383e-06
 Reference value :  4.20392e-06
 Reference value :  4.23713e-06
 Reference value :  4.25010e-06
 Reference value :  4.25011e-06
 Reference value :  4.25013e-06
 Reference value :  4.25017e-06
 Reference value :  4.25020e-06
 Reference value :  4.25020e-06
 Reference value :  4.25020e-06
 Reference value :  4.25021e-06
 Reference value :  4.25021e-06
 Reference value :  4.25022e-06
 Reference value :  4.25025e-06
 Reference value :  4.25030e-06
 Reference value :  4.25039e-06
 Reference value :  4.25059e-06
 Reference value :  4.25092e-06
 Reference value :  4.25146e-06
 Reference value :  4.25210e-06
 Reference value :  4.25275e-06
 Reference value :  4.25349e-06
 Reference value :  4.25451e-06
 Reference value :  4.25521e-06
 Reference value :  4.25603e-06
 Reference value :  4.25694e-06
 Reference value :  4.25787e-06
 Reference value :  4.25910e-06
 Reference value :  4.26115e-06
 Reference value :  4.26327e-06
 Reference value :  4.26650e-06
 Reference value :  4.27071e-06
 Reference value :  4.27913e-06
 Reference value :  4.29596e-06
 Reference value :  4.32499e-06
 Reference value :  4.35999e-06
 Reference value :  4.41151e-06
 Reference value :  4.46270e-06
 Reference value :  4.50000e-06
 Reference value :  4.50001e-06
 Reference value :  4.50003e-06
 Reference value :  4.50007e-06
 Reference value :  4.50010e-06
 Reference value :  4.50010e-06
 Reference value :  4.50011e-06
 Reference value :  4.50013e-06
 Reference value :  4.50016e-06
 Reference value :  4.50023e-06
 Reference value :  4.50037e-06
 Reference value :  4.50055e-06
 Reference value :  4.50091e-06
 Reference value :  4.50142e-06
 Reference value :  4.50197e-06
 Reference value :  4.50251e-06
 Reference value :  4.50320e-06
 Reference value :  4.50385e-06
 Reference value :  4.50462e-06
 Reference value :  4.50543e-06
 Reference value :  4.50629e-06
 Reference value :  4.50753e-06
 Reference value :  4.50870e-06
 Reference value :  4.50997e-06
 Reference value :  4.51140e-06
 Reference value :  4.51288e-06
 Reference value :  4.51428e-06
 Reference value :  4.51574e-06
 Reference value :  4.51730e-06
 Reference value :  4.51909e-06
 Reference value :  4.52244e-06
 Reference value :  4.52738e-06
 Reference value :  4.53727e-06
 Reference value :  4.55674e-06
 Reference value :  4.59405e-06
 Reference value :  4.66866e-06
 Reference value :  4.75010e-06
 Reference value :  4.75011e-06
 Reference value :  4.75013e-06
 Reference value :  4.75017e-06
 Reference value :  4.75020e-06
 Reference value :  4.75020e-06
 Reference value :  4.75020e-06
 Reference value :  4.75021e-06
 Reference value :  4.75021e-06
 Reference value :  4.75022e-06
 Reference value :  4.75025e-06
 Reference value :  4.75029e-06
 Reference value :  4.75039e-06
 Reference value :  4.75058e-06
 Reference value :  4.75091e-06
 Reference value :  4.75145e-06
 Reference value :  4.75208e-06
 Reference value :  4.75274e-06
 Reference value :  4.75347e-06
 Reference value :  4.75449e-06
 Reference value :  4.75522e-06
 Reference value :  4.75607e-06
 Reference value :  4.75682e-06
 Reference value :  4.75764e-06
 Reference value :  4.75864e-06
 Reference value :  4.75976e-06
 Reference value :  4.76090e-06
 Reference value :  4.76256e-06
 Reference value :  4.76441e-06
 Reference value :  4.76692e-06
 Reference value :  4.77011e-06
 Reference value :  4.77471e-06
 Reference value :  4.78390e-06
 Reference value :  4.79914e-06
 Reference value :  4.82961e-06
 Reference value :  4.89056e-06
 Reference value :  5.00000e-06
 Reference value :  5.00001e-06
 Reference value :  5.00003e-06
 Reference value :  5.00007e-06
 Reference value :  5.00010e-06
 Reference value :  5.00010e-06
 Reference value :  5.00011e-06
 Reference value :  5.00013e-06
 Reference value :  5.00016e-06
 Reference value :  5.00023e-06
 Reference value :  5.00037e-06
 Reference value :  5.00054e-06
 Reference value :  5.00090e-06
 Reference value :  5.00141e-06
 Reference value :  5.00196e-06
 Reference value :  5.00254e-06
 Reference value :  5.00327e-06
 Reference value :  5.00392e-06
 Reference value :  5.00469e-06
 Reference value :  5.00551e-06
 Reference value :  5.00639e-06
 Reference value :  5.00727e-06
 Reference value :  5.00804e-06
 Reference value :  5.00891e-06
 Reference value :  5.00987e-06
 Reference value :  5.01102e-06
 Reference value :  5.01283e-06
 Reference value :  5.01410e-06
 Reference value :  5.01551e-06
 Reference value :  5.01699e-06
 Reference value :  5.01860e-06
 Reference value :  5.02007e-06
 Reference value :  5.02119e-06
 Reference value :  5.02225e-06
 Reference value :  5.02352e-06
 Reference value :  5.02473e-06
 Reference value :  5.02600e-06
 Reference value :  5.02768e-06
 Reference value :  5.02926e-06
 Reference value :  5.03203e-06
 Reference value :  5.03483e-06
 Reference value :  5.03833e-06
 Reference value :  5.04191e-06
 Reference value :  5.04445e-06
 Reference value :  5.04689e-06
 Reference value :  5.04978e-06
 Reference value :  5.05261e-06
 Reference value :  5.05717e-06
 Reference value :  5.06228e-06
 Reference value :  5.06976e-06
 Reference value :  5.08093e-06
 Reference value :  5.09450e-06
 Reference value :  5.11173e-06
 Reference value :  5.13759e-06
 Reference value :  5.18117e-06
 Reference value :  5.24189e-06
 Reference value :  5.25010e-06
 Reference value :  5.25011e-06
 Reference value :  5.25013e-06
 Reference value :  5.25017e-06
 Reference value :  5.25020e-06
 Reference value :  5.25020e-06
 Reference value :  5.25020e-06
 Reference value :  5.25021e-06
 Reference value :  5.25021e-06
 Reference value :  5.25022e-06
 Reference value :  5.25025e-06
 Reference value :  5.25029e-06
 Reference value :  5.25039e-06
 Reference value :  5.25058e-06
 Reference value :  5.25092e-06
 Reference value :  5.25145e-06
 Reference value :  5.25208e-06
 Reference value :  5.25274e-06
 Reference value :  5.25347e-06
 Reference value :  5.25449e-06
 Reference value :  5.25524e-06
 Reference value :  5.25611e-06
 Reference value :  5.25698e-06
 Reference value :  5.25790e-06
 Reference value :  5.25923e-06
 Reference value :  5.26096e-06
 Reference value :  5.26320e-06
 Reference value :  5.26629e-06
 Reference value :  5.27061e-06
 Reference value :  5.27924e-06
 Reference value :  5.29578e-06
 Reference value :  5.32456e-06
 Reference value :  5.38212e-06
 Reference value :  5.49725e-06
 Reference value :  5.50000e-06
 Reference value :  5.50001e-06
 Reference value :  5.50003e-06
 Reference value :  5.50007e-06
 Reference value :  5.50010e-06
 Reference value :  5.50010e-06
 Reference value :  5.50011e-06
 Reference value :  5.50013e-06
 Reference value :  5.50016e-06
 Reference value :  5.50023e-06
 Reference value :  5.50037e-06
 Reference value :  5.50054e-06
 Reference value :  5.50090e-06
 Reference value :  5.50141e-06
 Reference value :  5.50196e-06
 Reference value :  5.50255e-06
 Reference value :  5.50319e-06
 Reference value :  5.50387e-06
 Reference value :  5.50464e-06
 Reference value :  5.50546e-06
 Reference value :  5.50637e-06
 Reference value :  5.50756e-06
 Reference value :  5.50880e-06
 Reference value :  5.51000e-06
 Reference value :  5.51126e-06
 Reference value :  5.51269e-06
 Reference value :  5.51405e-06
 Reference value :  5.51546e-06
 Reference value :  5.51695e-06
 Reference value :  5.51867e-06
 Reference value :  5.52202e-06
 Reference value :  5.52702e-06
 Reference value :  5.53700e-06
 Reference value :  5.55697e-06
 Reference value :  5.59691e-06
 Reference value :  5.67679e-06
 Reference value :  5.75010e-06
 Reference value :  5.75011e-06
 Reference value :  5.75013e-06
 Reference value :  5.75017e-06
 Reference value :  5.75020e-06
 Reference value :  5.75020e-06
 Reference value :  5.75020e-06
 Reference value :  5.75021e-06
 Reference value :  5.75021e-06
 Reference value :  5.75022e-06
 Reference value :  5.75025e-06
 Reference value :  5.75029e-06
 Reference value :  5.75039e-06
 Reference value :  5.75058e-06
 Reference value :  5.75091e-06
 Reference value :  5.75145e-06
 Reference value :  5.75208e-06
 Reference value :  5.75274e-06
 Reference value :  5.75347e-06
 Reference value :  5.75449e-06
 Reference value :  5.75523e-06
 Reference value :  5.75609e-06
 Reference value :  5.75683e-06
 Reference value :  5.75766e-06
 Reference value :  5.75866e-06
 Reference value :  5.75978e-06
 Reference value :  5.76201e-06
 Reference value :  5.76438e-06
 Reference value :  5.76835e-06
 Reference value :  5.77329e-06
 Reference value :  5.78318e-06
 Reference value :  5.80294e-06
 Reference value :  5.84116e-06
 Reference value :  5.91758e-06
 Reference value :  6.00000e-06
 Reference value :  6.00001e-06
 Reference value :  6.00003e-06
 Reference value :  6.00007e-06
 Reference value :  6.00010e-06
 Reference value :  6.00010e-06
 Reference value :  6.00011e-06
 Reference value :  6.00013e-06
 Reference value :  6.00016e-06
 Reference value :  6.00023e-06
 Reference value :  6.00037e-06
 Reference value :  6.00054e-06
 Reference value :  6.00090e-06
 Reference value :  6.00141e-06
 Reference value :  6.00196e-06
 Reference value :  6.00255e-06
 Reference value :  6.00320e-06
 Reference value :  6.00388e-06
 Reference value :  6.00464e-06
 Reference value :  6.00545e-06
 Reference value :  6.00630e-06
 Reference value :  6.00724e-06
 Reference value :  6.00801e-06
 Reference value :  6.00887e-06
 Reference value :  6.00988e-06
 Reference value :  6.01100e-06
 Reference value :  6.01289e-06
 Reference value :  6.01530e-06
 Reference value :  6.01804e-06
 Reference value :  6.02027e-06
 Reference value :  6.02208e-06
 Reference value :  6.02379e-06
 Reference value :  6.02542e-06
 Reference value :  6.02715e-06
 Reference value :  6.02910e-06
 Reference value :  6.03124e-06
 Reference value :  6.03381e-06
 Reference value :  6.03762e-06
 Reference value :  6.04310e-06
 Reference value :  6.04880e-06
 Reference value :  6.05577e-06
 Reference value :  6.06042e-06
 Reference value :  6.06534e-06
 Reference value :  6.07142e-06
 Reference value :  6.07780e-06
 Reference value :  6.08539e-06
 Reference value :  6.09253e-06
 Reference value :  6.10015e-06
 Reference value :  6.11539e-06
 Reference value :  6.13154e-06
 Reference value :  6.15874e-06
 Reference value :  6.20142e-06
 Reference value :  6.25010e-06
 Reference value :  6.25011e-06
 Reference value :  6.25013e-06
 Reference value :  6.25017e-06
 Reference value :  6.25020e-06
 Reference value :  6.25020e-06
 Reference value :  6.25020e-06
 Reference value :  6.25021e-06
 Reference value :  6.25021e-06
 Reference value :  6.25022e-06
 Reference value :  6.25025e-06
 Reference value :  6.25029e-06
 Reference value :  6.25039e-06
 Reference value :  6.25058e-06
 Reference value :  6.25091e-06
 Reference value :  6.25145e-06
 Reference value :  6.25208e-06
 Reference value :  6.25275e-06
 Reference value :  6.25348e-06
 Reference value :  6.25449e-06
 Reference value :  6.25521e-06
 Reference value :  6.25604e-06
 Reference value :  6.25692e-06
 Reference value :  6.25783e-06
 Reference value :  6.25909e-06
 Reference value :  6.26097e-06
 Reference value :  6.26314e-06
 Reference value :  6.26623e-06
 Reference value :  6.27046e-06
 Reference value :  6.27893e-06
 Reference value :  6.29570e-06
 Reference value :  6.32446e-06
 Reference value :  6.38197e-06
 Reference value :  6.49699e-06
 Reference value :  6.50000e-06
 Reference value :  6.50001e-06
 Reference value :  6.50003e-06
 Reference value :  6.50007e-06
 Reference value :  6.50010e-06
 Reference value :  6.50010e-06
 Reference value :  6.50011e-06
 Reference value :  6.50013e-06
 Reference value :  6.50016e-06
 Reference value :  6.50023e-06
 Reference value :  6.50037e-06
 Reference value :  6.50054e-06
 Reference value :  6.50090e-06
 Reference value :  6.50141e-06
 Reference value :  6.50196e-06
 Reference value :  6.50251e-06
 Reference value :  6.50320e-06
 Reference value :  6.50385e-06
 Reference value :  6.50462e-06
 Reference value :  6.50543e-06
 Reference value :  6.50629e-06
 Reference value :  6.50753e-06
 Reference value :  6.50871e-06
 Reference value :  6.51008e-06
 Reference value :  6.51160e-06
 Reference value :  6.51300e-06
 Reference value :  6.51440e-06
 Reference value :  6.51590e-06
 Reference value :  6.51759e-06
 Reference value :  6.51950e-06
 Reference value :  6.52298e-06
 Reference value :  6.52805e-06
 Reference value :  6.53778e-06
 Reference value :  6.55591e-06
 Reference value :  6.58950e-06
 Reference value :  6.65563e-06
 Reference value :  6.75010e-06
 Reference value :  6.75011e-06
 Reference value :  6.75013e-06
 Reference value :  6.75017e-06
 Reference value :  6.75020e-06
 Reference value :  6.75020e-06
 Reference value :  6.75020e-06
 Reference value :  6.75021e-06
 Reference value :  6.75021e-06
 Reference value :  6.75022e-06
 Reference value :  6.75025e-06
 Reference value :  6.75029e-06
 Reference value :  6.75039e-06
 Reference value :  6.75058e-06
 Reference value :  6.75091e-06
 Reference value :  6.75145e-06
 Reference value :  6.75208e-06
 Reference value :  6.75275e-06
 Reference value :  6.75348e-06
 Reference value :  6.75450e-06
 Reference value :  6.75523e-06
 Reference value :  6.75609e-06
 Reference value :  6.75683e-06
 Reference value :  6.75766e-06
 Reference value :  6.75866e-06
 Reference value :  6.75978e-06
 Reference value :  6.76093e-06
 Reference value :  6.76258e-06
 Reference value :  6.76446e-06
 Reference value :  6.76697e-06
 Reference value :  6.77018e-06
 Reference value :  6.77481e-06
 Reference value :  6.78405e-06
 Reference value :  6.80034e-06
 Reference value :  6.83293e-06
 Reference value :  6.89809e-06
 Reference value :  7.00000e-06
 Reference value :  7.00001e-06
 Reference value :  7.00003e-06
 Reference value :  7.00007e-06
 Reference value :  7.00010e-06
 Reference value :  7.00010e-06
 Reference value :  7.00011e-06
 Reference value :  7.00013e-06
 Reference value :  7.00016e-06
 Reference value :  7.00023e-06
 Reference value :  7.00037e-06
 Reference value :  7.00054e-06
 Reference value :  7.00090e-06
 Reference value :  7.00141e-06
 Reference value :  7.00196e-06
 Reference value :  7.00254e-06
 Reference value :  7.00319e-06
 Reference value :  7.00387e-06
 Reference value :  7.00463e-06
 Reference value :  7.00544e-06
 Reference value :  7.00622e-06
 Reference value :  7.00703e-06
 Reference value :  7.00782e-06
 Reference value :  7.00872e-06
 Reference value :  7.00960e-06
 Reference value :  7.01079e-06
 Reference value :  7.01245e-06
 Reference value :  7.01423e-06
 Reference value :  7.01578e-06
 Reference value :  7.01739e-06
 Reference value :  7.01889e-06
 Reference value :  7.02052e-06
 Reference value :  7.02175e-06
 Reference value :  7.02295e-06
 Reference value :  7.02442e-06
 Reference value :  7.02588e-06
 Reference value :  7.02725e-06
 Reference value :  7.02899e-06
 Reference value :  7.03147e-06
 Reference value :  7.03383e-06
 Reference value :  7.03608e-06
 Reference value :  7.03874e-06
 Reference value :  7.04121e-06
 Reference value :  7.04394e-06
 Reference value :  7.04815e-06
 Reference value :  7.05265e-06
 Reference value :  7.05923e-06
 Reference value :  7.07226e-06
 Reference value :  7.09288e-06
 Reference value :  7.12722e-06
 Reference value :  7.16955e-06
 Reference value :  7.24628e-06
 Reference value :  7.25010e-06
 Reference value :  7.25011e-06
 Reference value :  7.25013e-06
 Reference value :  7.25017e-06
 Reference value :  7.25020e-06
 Reference value :  7.25020e-06
 Reference value :  7.25020e-06
 Reference value :  7.25021e-06
 Reference value :  7.25021e-06
 Reference value :  7.25022e-06
 Reference value :  7.25025e-06
 Reference value :  7.25029e-06
 Reference value :  7.25039e-06
 Reference value :  7.25058e-06
 Reference value :  7.25092e-06
 Reference value :  7.25146e-06
 Reference value :  7.25209e-06
 Reference value :  7.25275e-06
 Reference value :  7.25348e-06
 Reference value :  7.25450e-06
 Reference value :  7.25523e-06
 Reference value :  7.25608e-06
 Reference value :  7.25695e-06
 Reference value :  7.25787e-06
 Reference value :  7.25916e-06
 Reference value :  7.26097e-06
 Reference value :  7.26317e-06
 Reference value :  7.26627e-06
 Reference value :  7.27054e-06
 Reference value :  7.27907e-06
 Reference value :  7.29570e-06
 Reference value :  7.32436e-06
 Reference value :  7.38167e-06
 Reference value :  7.49628e-06
 Reference value :  7.50000e-06
 Reference value :  7.50001e-06
 Reference value :  7.50003e-06
 Reference value :  7.50007e-06
 Reference value :  7.50010e-06
 Reference value :  7.50010e-06
 Reference value :  7.50011e-06
 Reference value :  7.50013e-06
 Reference value :  7.50016e-06
 Reference value :  7.50023e-06
 Reference value :  7.50037e-06
 Reference value :  7.50055e-06
 Reference value :  7.50090e-06
 Reference value :  7.50141e-06
 Reference value :  7.50195e-06
 Reference value :  7.50254e-06
 Reference value :  7.50318e-06
 Reference value :  7.50385e-06
 Reference value :  7.50463e-06
 Reference value :  7.50545e-06
 Reference value :  7.50636e-06
 Reference value :  7.50756e-06
 Reference value :  7.50879e-06
 Reference value :  7.51010e-06
 Reference value :  7.51156e-06
 Reference value :  7.51305e-06
 Reference value :  7.51444e-06
 Reference value :  7.51591e-06
 Reference value :  7.51743e-06
 Reference value :  7.51918e-06
 Reference value :  7.52261e-06
 Reference value :  7.52762e-06
 Reference value :  7.53763e-06
 Reference value :  7.55765e-06
 Reference value :  7.59770e-06
 Reference value :  7.67779e-06
 Reference value :  7.75010e-06
 Reference value :  7.75011e-06
 Reference value :  7.75013e-06
 Reference value :  7.75017e-06
 Reference value :  7.75020e-06
 Reference value :  7.75020e-06
 Reference value :  7.75020e-06
 Reference value :  7.75021e-06
 Reference value :  7.75021e-06
 Reference value :  7.75022e-06
 Reference value :  7.75025e-06
 Reference value :  7.75029e-06
 Reference value :  7.75039e-06
 Reference value :  7.75058e-06
 Reference value :  7.75092e-06
 Reference value :  7.75145e-06
 Reference value :  7.75209e-06
 Reference value :  7.75275e-06
 Reference value :  7.75348e-06
 Reference value :  7.75450e-06
 Reference value :  7.75522e-06
 Reference value :  7.75606e-06
 Reference value :  7.75679e-06
 Reference value :  7.75761e-06
 Reference value :  7.75861e-06
 Reference value :  7.75973e-06
 Reference value :  7.76196e-06
 Reference value :  7.76433e-06
 Reference value :  7.76830e-06
 Reference value :  7.77324e-06
 Reference value :  7.78314e-06
 Reference value :  7.80292e-06
 Reference value :  7.84247e-06
 Reference value :  7.92158e-06
 Reference value :  8.00000e-06
 Reference value :  8.00001e-06
 Reference value :  8.00003e-06
 Reference value :  8.00007e-06
 Reference value :  8.00010e-06
 Reference value :  8.00010e-06
 Reference value :  8.00011e-06
 Reference value :  8.00013e-06
 Reference value :  8.00016e-06
 Reference value :  8.00023e-06
 Reference value :  8.00037e-06
 Reference value :  8.00055e-06
 Reference value :  8.00090e-06
 Reference value :  8.00141e-06
 Reference value :  8.00195e-06
 Reference value :  8.00253e-06
 Reference value :  8.00318e-06
 Reference value :  8.00386e-06
 Reference value :  8.00462e-06
 Reference value :  8.00544e-06
 Reference value :  8.00628e-06
 Reference value :  8.00725e-06
 Reference value :  8.00803e-06
 Reference value :  8.00894e-06
 Reference value :  8.00988e-06
 Reference value :  8.01105e-06
 Reference value :  8.01283e-06
 Reference value :  8.01565e-06
 Reference value :  8.01864e-06
 Reference value :  8.02101e-06
 Reference value :  8.02361e-06
 Reference value :  8.02686e-06
 Reference value :  8.03030e-06
 Reference value :  8.03573e-06
 Reference value :  8.04284e-06
 Reference value :  8.05383e-06
 Reference value :  8.07098e-06
 Reference value :  8.09891e-06
 Reference value :  8.14781e-06
 Reference value :  8.22783e-06
 Reference value :  8.25010e-06
 Reference value :  8.25011e-06
 Reference value :  8.25013e-06
 Reference value :  8.25017e-06
 Reference value :  8.25020e-06
 Reference value :  8.25020e-06
 Reference value :  8.25020e-06
 Reference value :  8.25021e-06
 Reference value :  8.25021e-06
 Reference value :  8.25022e-06
 Reference value :  8.25025e-06
 Reference value :  8.25029e-06
 Reference value :  8.25039e-06
 Reference value :  8.25058e-06
 Reference value :  8.25096e-06
 Reference value :  8.25147e-06
 Reference value :  8.25214e-06
 Reference value :  8.25278e-06
 Reference value :  8.25353e-06
 Reference value :  8.25455e-06
 Reference value :  8.25555e-06
 Reference value :  8.25694e-06
 Reference value :  8.25849e-06
 Reference value :  8.25999e-06
 Reference value :  8.26246e-06
 Reference value :  8.26513e-06
 Reference value :  8.26940e-06
 Reference value :  8.27587e-06
 Reference value :  8.28881e-06
 Reference value :  8.31470e-06
 Reference value :  8.36646e-06
 Reference value :  8.46999e-06
 Reference value :  8.50000e-06
 Reference value :  8.50001e-06
 Reference value :  8.50003e-06
 Reference value :  8.50007e-06
 Reference value :  8.50010e-06
 Reference value :  8.50010e-06
 Reference value :  8.50011e-06
 Reference value :  8.50013e-06
 Reference value :  8.50016e-06
 Reference value :  8.50023e-06
 Reference value :  8.50037e-06
 Reference value :  8.50063e-06
 Reference value :  8.50106e-06
 Reference value :  8.50180e-06
 Reference value :  8.50254e-06
 Reference value :  8.50315e-06
 Reference value :  8.50389e-06
 Reference value :  8.50465e-06
 Reference value :  8.50549e-06
 Reference value :  8.50653e-06
 Reference value :  8.50762e-06
 Reference value :  8.50925e-06
 Reference value :  8.51106e-06
 Reference value :  8.51264e-06
 Reference value :  8.51427e-06
 Reference value :  8.51632e-06
 Reference value :  8.51890e-06
 Reference value :  8.52162e-06
 Reference value :  8.52704e-06
 Reference value :  8.53308e-06
 Reference value :  8.53728e-06
 Reference value :  8.54088e-06
 Reference value :  8.54397e-06
 Reference value :  8.54668e-06
 Reference value :  8.54887e-06
 Reference value :  8.55102e-06
 Reference value :  8.55323e-06
 Reference value :  8.55530e-06
 Reference value :  8.55830e-06
 Reference value :  8.56126e-06
 Reference value :  8.56437e-06
 Reference value :  8.57016e-06
 Reference value :  8.57814e-06
 Reference value :  8.58613e-06
 Reference value :  8.59689e-06
 Reference value :  8.61479e-06
 Reference value :  8.64548e-06
 Reference value :  8.66690e-06
 Reference value :  8.68937e-06
 Reference value :  8.71295e-06
 Reference value :  8.75010e-06
 Reference value :  8.75011e-06
 Reference value :  8.75013e-06
 Reference value :  8.75017e-06
 Reference value :  8.75020e-06
 Reference value :  8.75020e-06
 Reference value :  8.75020e-06
 Reference value :  8.75021e-06
 Reference value :  8.75021e-06
 Reference value :  8.75022e-06
 Reference value :  8.75025e-06
 Reference value :  8.75029e-06
 Reference value :  8.75039e-06
 Reference value :  8.75058e-06
 Reference value :  8.75096e-06
 Reference value :  8.75147e-06
 Reference value :  8.75214e-06
 Reference value :  8.75279e-06
 Reference value :  8.75352e-06
 Reference value :  8.75444e-06
 Reference value :  8.75520e-06
 Reference value :  8.75607e-06
 Reference value :  8.75688e-06
 Reference value :  8.75776e-06
 Reference value :  8.75916e-06
 Reference value :  8.76059e-06
 Reference value :  8.76299e-06
 Reference value :  8.76577e-06
 Reference value :  8.77024e-06
 Reference value :  8.77775e-06
 Reference value :  8.79277e-06
 Reference value :  8.81977e-06
 Reference value :  8.87376e-06
 Reference value :  8.98176e-06
 Reference value :  9.00000e-06
No. of Data Rows : 1422
ngspice-44 done
