
Note: Compatibility modes selected: hs a


Circuit: ** sch_path: /home/audrey/cace/sar-adc-using-sky130-pdk/runs/run_2025-09-09_12-13-46/parameters/power/run_4/power_consumption.sch

option SCALE: Scale is set to 1e-06 for instance and model parameters
option SCALE: Scale is set to 1e-06 for instance and model parameters
option SCALE: Scale is set to 1e-06 for instance and model parameters
option SCALE: Scale is set to 1e-06 for instance and model parameters
Doing analysis at TEMP = 27.000000 and TNOM = 27.000000

Using KLU as Direct Linear Solver
 Reference value :  0.00000e+00
 Reference value :  4.00000e-12
 Reference value :  3.20000e-11
 Reference value :  1.00000e-10
 Reference value :  1.44800e-10
 Reference value :  4.37238e-10
 Reference value :  1.04541e-09
 Reference value :  1.79885e-09
 Reference value :  2.65282e-09
 Reference value :  3.03595e-09
 Reference value :  3.99560e-09
 Reference value :  5.10245e-09
 Reference value :  5.71771e-09
 Reference value :  7.30462e-09
 Reference value :  8.28725e-09
 Reference value :  1.13953e-08
 Reference value :  1.22663e-08
 Reference value :  1.40098e-08
 Reference value :  2.08467e-08
 Reference value :  2.30753e-08
 Reference value :  2.47124e-08
 Reference value :  2.72538e-08
 Reference value :  3.03232e-08
 Reference value :  3.57680e-08
 Reference value :  3.88635e-08
 Reference value :  4.34920e-08
 Reference value :  5.69068e-08
 Reference value :  8.92376e-08
 Reference value :  1.30885e-07
 Reference value :  1.68475e-07
 Reference value :  1.96932e-07
 Reference value :  2.13599e-07
 Reference value :  2.46069e-07
 Reference value :  2.50110e-07
 Reference value :  2.50200e-07
 Reference value :  2.50250e-07
 Reference value :  2.50523e-07
 Reference value :  2.51245e-07
 Reference value :  2.51663e-07
 Reference value :  2.52112e-07
 Reference value :  2.53506e-07
 Reference value :  2.54036e-07
 Reference value :  2.55316e-07
 Reference value :  2.56933e-07
 Reference value :  2.65314e-07
 Reference value :  2.83570e-07
 Reference value :  3.41754e-07
 Reference value :  5.00010e-07
 Reference value :  5.00070e-07
 Reference value :  5.00108e-07
 Reference value :  5.00220e-07
 Reference value :  5.00500e-07
 Reference value :  5.01286e-07
 Reference value :  5.02188e-07
 Reference value :  5.03332e-07
 Reference value :  5.04843e-07
 Reference value :  5.06751e-07
 Reference value :  5.08018e-07
 Reference value :  5.10702e-07
 Reference value :  5.12101e-07
 Reference value :  5.15284e-07
 Reference value :  5.19520e-07
 Reference value :  5.26147e-07
 Reference value :  5.54701e-07
 Reference value :  6.21232e-07
 Reference value :  7.50100e-07
 Reference value :  7.50130e-07
 Reference value :  7.50208e-07
 Reference value :  7.50318e-07
 Reference value :  7.50684e-07
 Reference value :  7.50948e-07
 Reference value :  7.51856e-07
 Reference value :  7.53027e-07
 Reference value :  7.54419e-07
 Reference value :  7.56746e-07
 Reference value :  7.58439e-07
 Reference value :  7.60803e-07
 Reference value :  7.68442e-07
 Reference value :  7.89505e-07
 Reference value :  8.61231e-07
 Reference value :  1.00000e-06
 Reference value :  1.00003e-06
 Reference value :  1.00010e-06
 Reference value :  1.00012e-06
 Reference value :  1.00022e-06
 Reference value :  1.00050e-06
 Reference value :  1.00128e-06
 Reference value :  1.00219e-06
 Reference value :  1.00329e-06
 Reference value :  1.00442e-06
 Reference value :  1.00499e-06
 Reference value :  1.00557e-06
 Reference value :  1.00609e-06
 Reference value :  1.00755e-06
 Reference value :  1.00842e-06
 Reference value :  1.00973e-06
 Reference value :  1.01069e-06
 Reference value :  1.01172e-06
 Reference value :  1.01283e-06
 Reference value :  1.01368e-06
 Reference value :  1.01546e-06
 Reference value :  1.01645e-06
 Reference value :  1.01746e-06
 Reference value :  1.01853e-06
 Reference value :  1.02127e-06
 Reference value :  1.02656e-06
 Reference value :  1.04052e-06
 Reference value :  1.12847e-06
 Reference value :  1.18332e-06
 Reference value :  1.22707e-06
 Reference value :  1.25010e-06
 Reference value :  1.25013e-06
 Reference value :  1.25020e-06
 Reference value :  1.25026e-06
 Reference value :  1.25032e-06
 Reference value :  1.25045e-06
 Reference value :  1.25095e-06
 Reference value :  1.25138e-06
 Reference value :  1.25303e-06
 Reference value :  1.25377e-06
 Reference value :  1.25439e-06
 Reference value :  1.25572e-06
 Reference value :  1.25764e-06
 Reference value :  1.26149e-06
 Reference value :  1.26561e-06
 Reference value :  1.27878e-06
 Reference value :  1.36172e-06
 Reference value :  1.50000e-06
 Reference value :  1.50007e-06
 Reference value :  1.50012e-06
 Reference value :  1.50034e-06
 Reference value :  1.50128e-06
 Reference value :  1.50219e-06
 Reference value :  1.50323e-06
 Reference value :  1.50443e-06
 Reference value :  1.50617e-06
 Reference value :  1.50818e-06
 Reference value :  1.50921e-06
 Reference value :  1.51153e-06
 Reference value :  1.51497e-06
 Reference value :  1.52161e-06
 Reference value :  1.52753e-06
 Reference value :  1.53974e-06
 Reference value :  1.55865e-06
 Reference value :  1.59226e-06
 Reference value :  1.75010e-06
 Reference value :  1.75017e-06
 Reference value :  1.75022e-06
 Reference value :  1.75032e-06
 Reference value :  1.75068e-06
 Reference value :  1.75138e-06
 Reference value :  1.75302e-06
 Reference value :  1.75439e-06
 Reference value :  1.75576e-06
 Reference value :  1.75757e-06
 Reference value :  1.75843e-06
 Reference value :  1.76073e-06
 Reference value :  1.76481e-06
 Reference value :  1.77514e-06
 Reference value :  1.80604e-06
 Reference value :  2.00000e-06
 Reference value :  2.00003e-06
 Reference value :  2.00011e-06
 Reference value :  2.00022e-06
 Reference value :  2.00128e-06
 Reference value :  2.00268e-06
 Reference value :  2.00391e-06
 Reference value :  2.00499e-06
 Reference value :  2.00556e-06
 Reference value :  2.00609e-06
 Reference value :  2.00756e-06
 Reference value :  2.00973e-06
 Reference value :  2.01071e-06
 Reference value :  2.01174e-06
 Reference value :  2.01284e-06
 Reference value :  2.01369e-06
 Reference value :  2.01546e-06
 Reference value :  2.01644e-06
 Reference value :  2.01745e-06
 Reference value :  2.01851e-06
 Reference value :  2.01960e-06
 Reference value :  2.02123e-06
 Reference value :  2.02299e-06
 Reference value :  2.03175e-06
 Reference value :  2.04876e-06
 Reference value :  2.05668e-06
 Reference value :  2.06186e-06
 Reference value :  2.07272e-06
 Reference value :  2.08533e-06
 Reference value :  2.11744e-06
 Reference value :  2.19551e-06
 Reference value :  2.25013e-06
 Reference value :  2.25026e-06
 Reference value :  2.25138e-06
 Reference value :  2.25302e-06
 Reference value :  2.25504e-06
 Reference value :  2.25761e-06
 Reference value :  2.27278e-06
 Reference value :  2.50000e-06
 Reference value :  2.50007e-06
 Reference value :  2.50012e-06
 Reference value :  2.50034e-06
 Reference value :  2.50128e-06
 Reference value :  2.50219e-06
 Reference value :  2.50323e-06
 Reference value :  2.50508e-06
 Reference value :  2.50719e-06
 Reference value :  2.50930e-06
 Reference value :  2.51551e-06
 Reference value :  2.64286e-06
 Reference value :  2.75017e-06
 Reference value :  2.75026e-06
 Reference value :  2.75068e-06
 Reference value :  2.75138e-06
 Reference value :  2.75302e-06
 Reference value :  2.75440e-06
 Reference value :  2.75672e-06
 Reference value :  2.76144e-06
 Reference value :  2.84292e-06
 Reference value :  3.00001e-06
 Reference value :  3.00011e-06
 Reference value :  3.00022e-06
 Reference value :  3.00083e-06
 Reference value :  3.00176e-06
 Reference value :  3.00329e-06
 Reference value :  3.00441e-06
 Reference value :  3.00557e-06
 Reference value :  3.00757e-06
 Reference value :  3.01143e-06
 Reference value :  3.01388e-06
 Reference value :  3.01707e-06
 Reference value :  3.02104e-06
 Reference value :  3.05843e-06
 Reference value :  3.25011e-06
 Reference value :  3.25021e-06
 Reference value :  3.25044e-06
 Reference value :  3.25138e-06
 Reference value :  3.25236e-06
 Reference value :  3.25378e-06
 Reference value :  3.25505e-06
 Reference value :  3.25668e-06
 Reference value :  3.26557e-06
 Reference value :  3.34289e-06
 Reference value :  3.50001e-06
 Reference value :  3.50010e-06
 Reference value :  3.50022e-06
 Reference value :  3.50128e-06
 Reference value :  3.50219e-06
 Reference value :  3.50323e-06
 Reference value :  3.50443e-06
 Reference value :  3.50617e-06
 Reference value :  3.50819e-06
 Reference value :  3.51037e-06
 Reference value :  3.51288e-06
 Reference value :  3.54520e-06
 Reference value :  3.75011e-06
 Reference value :  3.75021e-06
 Reference value :  3.75044e-06
 Reference value :  3.75094e-06
 Reference value :  3.75138e-06
 Reference value :  3.75235e-06
 Reference value :  3.75377e-06
 Reference value :  3.75440e-06
 Reference value :  3.75577e-06
 Reference value :  3.75925e-06
 Reference value :  3.78431e-06
 Reference value :  3.90899e-06
 Reference value :  4.00007e-06
 Reference value :  4.00016e-06
 Reference value :  4.00034e-06
 Reference value :  4.00128e-06
 Reference value :  4.00219e-06
 Reference value :  4.00329e-06
 Reference value :  4.00440e-06
 Reference value :  4.00557e-06
 Reference value :  4.00609e-06
 Reference value :  4.00844e-06
 Reference value :  4.01143e-06
 Reference value :  4.01280e-06
 Reference value :  4.01388e-06
 Reference value :  4.01602e-06
 Reference value :  4.01707e-06
 Reference value :  4.01936e-06
 Reference value :  4.02606e-06
 Reference value :  4.04077e-06
 Reference value :  4.05065e-06
 Reference value :  4.07086e-06
 Reference value :  4.07829e-06
 Reference value :  4.09224e-06
 Reference value :  4.11638e-06
 Reference value :  4.18042e-06
 Reference value :  4.25010e-06
 Reference value :  4.25017e-06
 Reference value :  4.25022e-06
 Reference value :  4.25045e-06
 Reference value :  4.25138e-06
 Reference value :  4.25302e-06
 Reference value :  4.25437e-06
 Reference value :  4.25664e-06
 Reference value :  4.25913e-06
 Reference value :  4.27249e-06
 Reference value :  4.29047e-06
 Reference value :  4.42570e-06
 Reference value :  4.50003e-06
 Reference value :  4.50012e-06
 Reference value :  4.50034e-06
 Reference value :  4.50128e-06
 Reference value :  4.50219e-06
 Reference value :  4.50323e-06
 Reference value :  4.50443e-06
 Reference value :  4.50617e-06
 Reference value :  4.50819e-06
 Reference value :  4.51037e-06
 Reference value :  4.51158e-06
 Reference value :  4.52034e-06
 Reference value :  4.54482e-06
 Reference value :  4.75010e-06
 Reference value :  4.75013e-06
 Reference value :  4.75020e-06
 Reference value :  4.75022e-06
 Reference value :  4.75032e-06
 Reference value :  4.75044e-06
 Reference value :  4.75068e-06
 Reference value :  4.75094e-06
 Reference value :  4.75138e-06
 Reference value :  4.75235e-06
 Reference value :  4.75377e-06
 Reference value :  4.75439e-06
 Reference value :  4.75577e-06
 Reference value :  4.75758e-06
 Reference value :  4.76142e-06
 Reference value :  4.77265e-06
 Reference value :  4.80552e-06
 Reference value :  5.00000e-06
 Reference value :  5.00003e-06
 Reference value :  5.00010e-06
 Reference value :  5.00012e-06
 Reference value :  5.00034e-06
 Reference value :  5.00083e-06
 Reference value :  5.00128e-06
 Reference value :  5.00219e-06
 Reference value :  5.00329e-06
 Reference value :  5.00440e-06
 Reference value :  5.00557e-06
 Reference value :  5.00609e-06
 Reference value :  5.00844e-06
 Reference value :  5.01143e-06
 Reference value :  5.01388e-06
 Reference value :  5.01602e-06
 Reference value :  5.01706e-06
 Reference value :  5.02104e-06
 Reference value :  5.03081e-06
 Reference value :  5.04128e-06
 Reference value :  5.05779e-06
 Reference value :  5.08265e-06
 Reference value :  5.15249e-06
 Reference value :  5.25011e-06
 Reference value :  5.25017e-06
 Reference value :  5.25022e-06
 Reference value :  5.25032e-06
 Reference value :  5.25094e-06
 Reference value :  5.25185e-06
 Reference value :  5.25302e-06
 Reference value :  5.25440e-06
 Reference value :  5.25675e-06
 Reference value :  5.26603e-06
 Reference value :  5.33958e-06
 Reference value :  5.50003e-06
 Reference value :  5.50012e-06
 Reference value :  5.50034e-06
 Reference value :  5.50129e-06
 Reference value :  5.50218e-06
 Reference value :  5.50395e-06
 Reference value :  5.50553e-06
 Reference value :  5.50734e-06
 Reference value :  5.50903e-06
 Reference value :  5.51119e-06
 Reference value :  5.52890e-06
 Reference value :  5.65964e-06
 Reference value :  5.75011e-06
 Reference value :  5.75017e-06
 Reference value :  5.75026e-06
 Reference value :  5.75094e-06
 Reference value :  5.75185e-06
 Reference value :  5.75302e-06
 Reference value :  5.75439e-06
 Reference value :  5.75670e-06
 Reference value :  5.75842e-06
 Reference value :  5.76214e-06
 Reference value :  5.77522e-06
 Reference value :  5.84824e-06
 Reference value :  6.00003e-06
 Reference value :  6.00011e-06
 Reference value :  6.00022e-06
 Reference value :  6.00083e-06
 Reference value :  6.00128e-06
 Reference value :  6.00219e-06
 Reference value :  6.00329e-06
 Reference value :  6.00441e-06
 Reference value :  6.00556e-06
 Reference value :  6.00609e-06
 Reference value :  6.00843e-06
 Reference value :  6.01071e-06
 Reference value :  6.01285e-06
 Reference value :  6.01368e-06
 Reference value :  6.01542e-06
 Reference value :  6.01848e-06
 Reference value :  6.02111e-06
 Reference value :  6.03098e-06
 Reference value :  6.04375e-06
 Reference value :  6.09828e-06
 Reference value :  6.25010e-06
 Reference value :  6.25013e-06
 Reference value :  6.25021e-06
 Reference value :  6.25032e-06
 Reference value :  6.25068e-06
 Reference value :  6.25138e-06
 Reference value :  6.25185e-06
 Reference value :  6.25235e-06
 Reference value :  6.25375e-06
 Reference value :  6.25436e-06
 Reference value :  6.25501e-06
 Reference value :  6.25662e-06
 Reference value :  6.26137e-06
 Reference value :  6.30443e-06
 Reference value :  6.50000e-06
 Reference value :  6.50007e-06
 Reference value :  6.50011e-06
 Reference value :  6.50022e-06
 Reference value :  6.50083e-06
 Reference value :  6.50129e-06
 Reference value :  6.50218e-06
 Reference value :  6.50332e-06
 Reference value :  6.50395e-06
 Reference value :  6.50473e-06
 Reference value :  6.50553e-06
 Reference value :  6.50734e-06
 Reference value :  6.50817e-06
 Reference value :  6.50903e-06
 Reference value :  6.51003e-06
 Reference value :  6.51241e-06
 Reference value :  6.52891e-06
 Reference value :  6.58509e-06
 Reference value :  6.75010e-06
 Reference value :  6.75013e-06
 Reference value :  6.75020e-06
 Reference value :  6.75022e-06
 Reference value :  6.75032e-06
 Reference value :  6.75068e-06
 Reference value :  6.75138e-06
 Reference value :  6.75235e-06
 Reference value :  6.75376e-06
 Reference value :  6.75439e-06
 Reference value :  6.75576e-06
 Reference value :  6.75670e-06
 Reference value :  6.75842e-06
 Reference value :  6.76074e-06
 Reference value :  6.76484e-06
 Reference value :  6.77522e-06
 Reference value :  6.80749e-06
 Reference value :  6.92430e-06
 Reference value :  7.00001e-06
 Reference value :  7.00003e-06
 Reference value :  7.00010e-06
 Reference value :  7.00012e-06
 Reference value :  7.00022e-06
 Reference value :  7.00050e-06
 Reference value :  7.00128e-06
 Reference value :  7.00176e-06
 Reference value :  7.00268e-06
 Reference value :  7.00329e-06
 Reference value :  7.00441e-06
 Reference value :  7.00556e-06
 Reference value :  7.00609e-06
 Reference value :  7.00756e-06
 Reference value :  7.00973e-06
 Reference value :  7.01072e-06
 Reference value :  7.01175e-06
 Reference value :  7.01286e-06
 Reference value :  7.01368e-06
 Reference value :  7.01447e-06
 Reference value :  7.01652e-06
 Reference value :  7.01868e-06
 Reference value :  7.02164e-06
 Reference value :  7.03280e-06
 Reference value :  7.08515e-06
 Reference value :  7.24647e-06
 Reference value :  7.25013e-06
 Reference value :  7.25020e-06
 Reference value :  7.25026e-06
 Reference value :  7.25044e-06
 Reference value :  7.25094e-06
 Reference value :  7.25138e-06
 Reference value :  7.25185e-06
 Reference value :  7.25235e-06
 Reference value :  7.25302e-06
 Reference value :  7.25375e-06
 Reference value :  7.25436e-06
 Reference value :  7.25567e-06
 Reference value :  7.25757e-06
 Reference value :  7.26138e-06
 Reference value :  7.28362e-06
 Reference value :  7.33931e-06
 Reference value :  7.50000e-06
 Reference value :  7.50003e-06
 Reference value :  7.50010e-06
 Reference value :  7.50012e-06
 Reference value :  7.50022e-06
 Reference value :  7.50083e-06
 Reference value :  7.50176e-06
 Reference value :  7.50218e-06
 Reference value :  7.50332e-06
 Reference value :  7.50395e-06
 Reference value :  7.50473e-06
 Reference value :  7.50657e-06
 Reference value :  7.50734e-06
 Reference value :  7.50903e-06
 Reference value :  7.51119e-06
 Reference value :  7.51485e-06
 Reference value :  7.52892e-06
 Reference value :  7.66014e-06
 Reference value :  7.75017e-06
 Reference value :  7.75021e-06
 Reference value :  7.75026e-06
 Reference value :  7.75044e-06
 Reference value :  7.75094e-06
 Reference value :  7.75138e-06
 Reference value :  7.75235e-06
 Reference value :  7.75302e-06
 Reference value :  7.75439e-06
 Reference value :  7.75504e-06
 Reference value :  7.75669e-06
 Reference value :  7.75842e-06
 Reference value :  7.76073e-06
 Reference value :  7.76829e-06
 Reference value :  7.80707e-06
 Reference value :  8.00000e-06
 Reference value :  8.00007e-06
 Reference value :  8.00010e-06
 Reference value :  8.00012e-06
 Reference value :  8.00034e-06
 Reference value :  8.00128e-06
 Reference value :  8.00219e-06
 Reference value :  8.00329e-06
 Reference value :  8.00441e-06
 Reference value :  8.00556e-06
 Reference value :  8.00609e-06
 Reference value :  8.00756e-06
 Reference value :  8.00927e-06
 Reference value :  8.00997e-06
 Reference value :  8.01180e-06
 Reference value :  8.01290e-06
 Reference value :  8.01449e-06
 Reference value :  8.01616e-06
 Reference value :  8.01994e-06
 Reference value :  8.02523e-06
 Reference value :  8.03071e-06
 Reference value :  8.03939e-06
 Reference value :  8.04675e-06
 Reference value :  8.06278e-06
 Reference value :  8.11135e-06
 Reference value :  8.25010e-06
 Reference value :  8.25013e-06
 Reference value :  8.25020e-06
 Reference value :  8.25022e-06
 Reference value :  8.25032e-06
 Reference value :  8.25070e-06
 Reference value :  8.25139e-06
 Reference value :  8.25237e-06
 Reference value :  8.25387e-06
 Reference value :  8.25565e-06
 Reference value :  8.25659e-06
 Reference value :  8.25925e-06
 Reference value :  8.27125e-06
 Reference value :  8.29647e-06
 Reference value :  8.38411e-06
 Reference value :  8.50000e-06
No. of Data Rows : 1251
ngspice-44 done
