
Note: Compatibility modes selected: hs a


Circuit: ** sch_path: /home/madra/cace/sar-adc-using-sky130-pdk/runs/run_2025-09-01_18-32-59/parameters/inl/run_0/sar_output.sch

option SCALE: Scale is set to 1e-06 for instance and model parameters
option SCALE: Scale is set to 1e-06 for instance and model parameters
option SCALE: Scale is set to 1e-06 for instance and model parameters
option SCALE: Scale is set to 1e-06 for instance and model parameters
Doing analysis at TEMP = 27.000000 and TNOM = 27.000000

Using KLU as Direct Linear Solver
Operating point simulation skipped by 'uic',
  now using transient initial conditions.
 Reference value :  1.00000e-12
 Reference value :  1.08400e-12
 Reference value :  1.42000e-12
 Reference value :  3.13853e-12
 Reference value :  9.38339e-12
 Reference value :  3.25926e-11
 Reference value :  1.00000e-10
 Reference value :  1.35469e-10
 Reference value :  4.19219e-10
 Reference value :  9.71576e-10
 Reference value :  1.91536e-09
 Reference value :  3.25399e-09
 Reference value :  5.20065e-09
 Reference value :  6.12390e-09
 Reference value :  7.48476e-09
 Reference value :  8.86543e-09
 Reference value :  1.11424e-08
 Reference value :  1.30307e-08
 Reference value :  1.64621e-08
 Reference value :  2.54577e-08
 Reference value :  3.78831e-08
 Reference value :  5.84134e-08
 Reference value :  1.32084e-07
 Reference value :  2.50110e-07
 Reference value :  2.50208e-07
 Reference value :  2.50315e-07
 Reference value :  2.50568e-07
 Reference value :  2.51400e-07
 Reference value :  2.52373e-07
 Reference value :  2.53667e-07
 Reference value :  2.54222e-07
 Reference value :  2.55422e-07
 Reference value :  2.56996e-07
 Reference value :  2.62626e-07
 Reference value :  3.04351e-07
 Reference value :  5.00000e-07
 Reference value :  5.00070e-07
 Reference value :  5.00124e-07
 Reference value :  5.00345e-07
 Reference value :  5.01310e-07
 Reference value :  5.02775e-07
 Reference value :  5.03935e-07
 Reference value :  5.06433e-07
 Reference value :  5.07731e-07
 Reference value :  5.10014e-07
 Reference value :  5.11177e-07
 Reference value :  5.13779e-07
 Reference value :  5.19354e-07
 Reference value :  5.35377e-07
 Reference value :  6.21604e-07
 Reference value :  7.50110e-07
 Reference value :  7.50170e-07
 Reference value :  7.50208e-07
 Reference value :  7.50318e-07
 Reference value :  7.50597e-07
 Reference value :  7.51700e-07
 Reference value :  7.53493e-07
 Reference value :  7.54593e-07
 Reference value :  7.55913e-07
 Reference value :  7.57880e-07
 Reference value :  7.67050e-07
 Reference value :  8.13885e-07
 Reference value :  1.00000e-06
 Reference value :  1.00007e-06
 Reference value :  1.00011e-06
 Reference value :  1.00022e-06
 Reference value :  1.00052e-06
 Reference value :  1.00086e-06
 Reference value :  1.00182e-06
 Reference value :  1.00278e-06
 Reference value :  1.00390e-06
 Reference value :  1.00522e-06
 Reference value :  1.00586e-06
 Reference value :  1.00749e-06
 Reference value :  1.01010e-06
 Reference value :  1.01153e-06
 Reference value :  1.01280e-06
 Reference value :  1.01379e-06
 Reference value :  1.01587e-06
 Reference value :  1.01802e-06
 Reference value :  1.02096e-06
 Reference value :  1.02585e-06
 Reference value :  1.03016e-06
 Reference value :  1.03778e-06
 Reference value :  1.04478e-06
 Reference value :  1.05102e-06
 Reference value :  1.05828e-06
 Reference value :  1.06870e-06
 Reference value :  1.08830e-06
 Reference value :  1.14928e-06
 Reference value :  1.25010e-06
 Reference value :  1.25013e-06
 Reference value :  1.25021e-06
 Reference value :  1.25032e-06
 Reference value :  1.25060e-06
 Reference value :  1.25127e-06
 Reference value :  1.25216e-06
 Reference value :  1.25346e-06
 Reference value :  1.25453e-06
 Reference value :  1.25584e-06
 Reference value :  1.25982e-06
 Reference value :  1.29014e-06
 Reference value :  1.50001e-06
 Reference value :  1.50010e-06
 Reference value :  1.50016e-06
 Reference value :  1.50052e-06
 Reference value :  1.50131e-06
 Reference value :  1.50223e-06
 Reference value :  1.50322e-06
 Reference value :  1.50442e-06
 Reference value :  1.50522e-06
 Reference value :  1.50671e-06
 Reference value :  1.50832e-06
 Reference value :  1.51031e-06
 Reference value :  1.52623e-06
 Reference value :  1.75010e-06
 Reference value :  1.75017e-06
 Reference value :  1.75022e-06
 Reference value :  1.75044e-06
 Reference value :  1.75126e-06
 Reference value :  1.75214e-06
 Reference value :  1.75350e-06
 Reference value :  1.75460e-06
 Reference value :  1.75598e-06
 Reference value :  1.75765e-06
 Reference value :  1.76167e-06
 Reference value :  1.77226e-06
 Reference value :  1.81668e-06
 Reference value :  2.00001e-06
 Reference value :  2.00010e-06
 Reference value :  2.00022e-06
 Reference value :  2.00086e-06
 Reference value :  2.00231e-06
 Reference value :  2.00334e-06
 Reference value :  2.00457e-06
 Reference value :  2.00582e-06
 Reference value :  2.00733e-06
 Reference value :  2.00943e-06
 Reference value :  2.01155e-06
 Reference value :  2.01351e-06
 Reference value :  2.01529e-06
 Reference value :  2.01725e-06
 Reference value :  2.01959e-06
 Reference value :  2.03522e-06
 Reference value :  2.11263e-06
 Reference value :  2.25010e-06
 Reference value :  2.25017e-06
 Reference value :  2.25022e-06
 Reference value :  2.25045e-06
 Reference value :  2.25127e-06
 Reference value :  2.25216e-06
 Reference value :  2.25352e-06
 Reference value :  2.25462e-06
 Reference value :  2.25597e-06
 Reference value :  2.26013e-06
 Reference value :  2.29380e-06
 Reference value :  2.50000e-06
 Reference value :  2.50007e-06
 Reference value :  2.50012e-06
 Reference value :  2.50022e-06
 Reference value :  2.50086e-06
 Reference value :  2.50175e-06
 Reference value :  2.50322e-06
 Reference value :  2.50522e-06
 Reference value :  2.50671e-06
 Reference value :  2.50832e-06
 Reference value :  2.51150e-06
 Reference value :  2.54211e-06
 Reference value :  2.75011e-06
 Reference value :  2.75020e-06
 Reference value :  2.75032e-06
 Reference value :  2.75083e-06
 Reference value :  2.75170e-06
 Reference value :  2.75270e-06
 Reference value :  2.75401e-06
 Reference value :  2.75527e-06
 Reference value :  2.75679e-06
 Reference value :  2.75871e-06
 Reference value :  2.76165e-06
 Reference value :  2.77221e-06
 Reference value :  2.81653e-06
 Reference value :  3.00000e-06
 Reference value :  3.00007e-06
 Reference value :  3.00012e-06
 Reference value :  3.00034e-06
 Reference value :  3.00131e-06
 Reference value :  3.00278e-06
 Reference value :  3.00393e-06
 Reference value :  3.00519e-06
 Reference value :  3.00648e-06
 Reference value :  3.00834e-06
 Reference value :  3.01047e-06
 Reference value :  3.01266e-06
 Reference value :  3.01433e-06
 Reference value :  3.01628e-06
 Reference value :  3.01839e-06
 Reference value :  3.02344e-06
 Reference value :  3.04711e-06
 Reference value :  3.08226e-06
 Reference value :  3.09932e-06
 Reference value :  3.11377e-06
 Reference value :  3.12456e-06
 Reference value :  3.13624e-06
 Reference value :  3.16911e-06
 Reference value :  3.25010e-06
 Reference value :  3.25017e-06
 Reference value :  3.25022e-06
 Reference value :  3.25045e-06
 Reference value :  3.25084e-06
 Reference value :  3.25171e-06
 Reference value :  3.25273e-06
 Reference value :  3.25404e-06
 Reference value :  3.25526e-06
 Reference value :  3.25677e-06
 Reference value :  3.26316e-06
 Reference value :  3.26717e-06
 Reference value :  3.27519e-06
 Reference value :  3.28431e-06
 Reference value :  3.29678e-06
 Reference value :  3.33736e-06
 Reference value :  3.37628e-06
 Reference value :  3.45118e-06
 Reference value :  3.50003e-06
 Reference value :  3.50011e-06
 Reference value :  3.50022e-06
 Reference value :  3.50086e-06
 Reference value :  3.50175e-06
 Reference value :  3.50268e-06
 Reference value :  3.50379e-06
 Reference value :  3.50522e-06
 Reference value :  3.50671e-06
 Reference value :  3.50832e-06
 Reference value :  3.51030e-06
 Reference value :  3.52595e-06
 Reference value :  3.75010e-06
 Reference value :  3.75017e-06
 Reference value :  3.75022e-06
 Reference value :  3.75044e-06
 Reference value :  3.75083e-06
 Reference value :  3.75214e-06
 Reference value :  3.75350e-06
 Reference value :  3.75401e-06
 Reference value :  3.75598e-06
 Reference value :  3.75764e-06
 Reference value :  3.75977e-06
 Reference value :  3.76676e-06
 Reference value :  3.81658e-06
 Reference value :  4.00001e-06
 Reference value :  4.00007e-06
 Reference value :  4.00012e-06
 Reference value :  4.00022e-06
 Reference value :  4.00052e-06
 Reference value :  4.00131e-06
 Reference value :  4.00278e-06
 Reference value :  4.00334e-06
 Reference value :  4.00457e-06
 Reference value :  4.00582e-06
 Reference value :  4.00733e-06
 Reference value :  4.01047e-06
 Reference value :  4.01268e-06
 Reference value :  4.01436e-06
 Reference value :  4.01634e-06
 Reference value :  4.01848e-06
 Reference value :  4.02663e-06
 Reference value :  4.03465e-06
 Reference value :  4.03809e-06
 Reference value :  4.04297e-06
 Reference value :  4.05335e-06
 Reference value :  4.06317e-06
 Reference value :  4.09932e-06
 Reference value :  4.22522e-06
 Reference value :  4.25011e-06
 Reference value :  4.25017e-06
 Reference value :  4.25022e-06
 Reference value :  4.25039e-06
 Reference value :  4.25074e-06
 Reference value :  4.25147e-06
 Reference value :  4.25245e-06
 Reference value :  4.25384e-06
 Reference value :  4.25504e-06
 Reference value :  4.25648e-06
 Reference value :  4.26140e-06
 Reference value :  4.28526e-06
 Reference value :  4.47419e-06
 Reference value :  4.50003e-06
 Reference value :  4.50011e-06
 Reference value :  4.50022e-06
 Reference value :  4.50093e-06
 Reference value :  4.50196e-06
 Reference value :  4.50297e-06
 Reference value :  4.50350e-06
 Reference value :  4.50490e-06
 Reference value :  4.50641e-06
 Reference value :  4.50828e-06
 Reference value :  4.51126e-06
 Reference value :  4.52706e-06
 Reference value :  4.63590e-06
 Reference value :  4.75013e-06
 Reference value :  4.75021e-06
 Reference value :  4.75032e-06
 Reference value :  4.75074e-06
 Reference value :  4.75147e-06
 Reference value :  4.75244e-06
 Reference value :  4.75382e-06
 Reference value :  4.75440e-06
 Reference value :  4.75566e-06
 Reference value :  4.75643e-06
 Reference value :  4.75889e-06
 Reference value :  4.77068e-06
 Reference value :  4.85252e-06
 Reference value :  5.00000e-06
 Reference value :  5.00003e-06
 Reference value :  5.00010e-06
 Reference value :  5.00012e-06
 Reference value :  5.00022e-06
 Reference value :  5.00059e-06
 Reference value :  5.00145e-06
 Reference value :  5.00245e-06
 Reference value :  5.00349e-06
 Reference value :  5.00466e-06
 Reference value :  5.00659e-06
 Reference value :  5.00872e-06
 Reference value :  5.01186e-06
 Reference value :  5.01441e-06
 Reference value :  5.01633e-06
 Reference value :  5.01879e-06
 Reference value :  5.02212e-06
 Reference value :  5.03017e-06
 Reference value :  5.04168e-06
 Reference value :  5.04840e-06
 Reference value :  5.05321e-06
 Reference value :  5.06374e-06
 Reference value :  5.07664e-06
 Reference value :  5.09003e-06
 Reference value :  5.14329e-06
 Reference value :  5.25011e-06
 Reference value :  5.25017e-06
 Reference value :  5.25022e-06
 Reference value :  5.25039e-06
 Reference value :  5.25097e-06
 Reference value :  5.25240e-06
 Reference value :  5.25376e-06
 Reference value :  5.25493e-06
 Reference value :  5.25636e-06
 Reference value :  5.25889e-06
 Reference value :  5.27049e-06
 Reference value :  5.34301e-06
 Reference value :  5.48016e-06
 Reference value :  5.50003e-06
 Reference value :  5.50012e-06
 Reference value :  5.50035e-06
 Reference value :  5.50093e-06
 Reference value :  5.50243e-06
 Reference value :  5.50348e-06
 Reference value :  5.50471e-06
 Reference value :  5.50648e-06
 Reference value :  5.50836e-06
 Reference value :  5.51025e-06
 Reference value :  5.51260e-06
 Reference value :  5.52557e-06
 Reference value :  5.58327e-06
 Reference value :  5.60615e-06
 Reference value :  5.67222e-06
 Reference value :  5.73812e-06
 Reference value :  5.75013e-06
 Reference value :  5.75022e-06
 Reference value :  5.75039e-06
 Reference value :  5.75099e-06
 Reference value :  5.75244e-06
 Reference value :  5.75382e-06
 Reference value :  5.75440e-06
 Reference value :  5.75566e-06
 Reference value :  5.75725e-06
 Reference value :  5.76453e-06
 Reference value :  5.85140e-06
 Reference value :  6.00001e-06
 Reference value :  6.00010e-06
 Reference value :  6.00016e-06
 Reference value :  6.00059e-06
 Reference value :  6.00145e-06
 Reference value :  6.00245e-06
 Reference value :  6.00349e-06
 Reference value :  6.00467e-06
 Reference value :  6.00590e-06
 Reference value :  6.00876e-06
 Reference value :  6.01189e-06
 Reference value :  6.01441e-06
 Reference value :  6.01636e-06
 Reference value :  6.01876e-06
 Reference value :  6.02484e-06
 Reference value :  6.03574e-06
 Reference value :  6.04369e-06
 Reference value :  6.05224e-06
 Reference value :  6.06934e-06
 Reference value :  6.10449e-06
 Reference value :  6.19128e-06
 Reference value :  6.25013e-06
 Reference value :  6.25021e-06
 Reference value :  6.25032e-06
 Reference value :  6.25071e-06
 Reference value :  6.25193e-06
 Reference value :  6.25376e-06
 Reference value :  6.25495e-06
 Reference value :  6.25642e-06
 Reference value :  6.26470e-06
 Reference value :  6.34722e-06
 Reference value :  6.50003e-06
 Reference value :  6.50011e-06
 Reference value :  6.50022e-06
 Reference value :  6.50093e-06
 Reference value :  6.50243e-06
 Reference value :  6.50347e-06
 Reference value :  6.50471e-06
 Reference value :  6.50648e-06
 Reference value :  6.50836e-06
 Reference value :  6.51026e-06
 Reference value :  6.51261e-06
 Reference value :  6.53777e-06
 Reference value :  6.68720e-06
 Reference value :  6.75013e-06
 Reference value :  6.75021e-06
 Reference value :  6.75032e-06
 Reference value :  6.75074e-06
 Reference value :  6.75194e-06
 Reference value :  6.75311e-06
 Reference value :  6.75440e-06
 Reference value :  6.75567e-06
 Reference value :  6.75726e-06
 Reference value :  6.76026e-06
 Reference value :  6.76722e-06
 Reference value :  6.79483e-06
 Reference value :  7.00000e-06
 Reference value :  7.00007e-06
 Reference value :  7.00012e-06
 Reference value :  7.00035e-06
 Reference value :  7.00145e-06
 Reference value :  7.00245e-06
 Reference value :  7.00350e-06
 Reference value :  7.00459e-06
 Reference value :  7.00583e-06
 Reference value :  7.00731e-06
 Reference value :  7.00970e-06
 Reference value :  7.01066e-06
 Reference value :  7.01294e-06
 Reference value :  7.01378e-06
 Reference value :  7.01554e-06
 Reference value :  7.01746e-06
 Reference value :  7.01995e-06
 Reference value :  7.03373e-06
 Reference value :  7.09462e-06
 Reference value :  7.25010e-06
 Reference value :  7.25017e-06
 Reference value :  7.25022e-06
 Reference value :  7.25039e-06
 Reference value :  7.25097e-06
 Reference value :  7.25193e-06
 Reference value :  7.25379e-06
 Reference value :  7.25495e-06
 Reference value :  7.25632e-06
 Reference value :  7.26095e-06
 Reference value :  7.28141e-06
 Reference value :  7.50000e-06
 Reference value :  7.50007e-06
 Reference value :  7.50011e-06
 Reference value :  7.50022e-06
 Reference value :  7.50093e-06
 Reference value :  7.50196e-06
 Reference value :  7.50293e-06
 Reference value :  7.50405e-06
 Reference value :  7.50560e-06
 Reference value :  7.50743e-06
 Reference value :  7.50928e-06
 Reference value :  7.51137e-06
 Reference value :  7.51872e-06
 Reference value :  7.60109e-06
 Reference value :  7.75013e-06
 Reference value :  7.75022e-06
 Reference value :  7.75039e-06
 Reference value :  7.75099e-06
 Reference value :  7.75245e-06
 Reference value :  7.75382e-06
 Reference value :  7.75503e-06
 Reference value :  7.75643e-06
 Reference value :  7.75808e-06
 Reference value :  7.76191e-06
 Reference value :  7.78091e-06
 Reference value :  7.92104e-06
 Reference value :  8.00001e-06
 Reference value :  8.00010e-06
 Reference value :  8.00016e-06
 Reference value :  8.00035e-06
 Reference value :  8.00093e-06
 Reference value :  8.00245e-06
 Reference value :  8.00350e-06
 Reference value :  8.00459e-06
 Reference value :  8.00583e-06
 Reference value :  8.00816e-06
 Reference value :  8.00967e-06
 Reference value :  8.01137e-06
 Reference value :  8.01670e-06
 Reference value :  8.02812e-06
 Reference value :  8.04650e-06
 Reference value :  8.06254e-06
 Reference value :  8.07602e-06
 Reference value :  8.09385e-06
 Reference value :  8.13826e-06
 Reference value :  8.25010e-06
 Reference value :  8.25017e-06
 Reference value :  8.25022e-06
 Reference value :  8.25045e-06
 Reference value :  8.25119e-06
 Reference value :  8.25257e-06
 Reference value :  8.25406e-06
 Reference value :  8.25597e-06
 Reference value :  8.25856e-06
 Reference value :  8.26808e-06
 Reference value :  8.40959e-06
 Reference value :  8.50003e-06
 Reference value :  8.50011e-06
 Reference value :  8.50022e-06
 Reference value :  8.50094e-06
 Reference value :  8.50195e-06
 Reference value :  8.50297e-06
 Reference value :  8.50424e-06
 Reference value :  8.50489e-06
 Reference value :  8.50714e-06
 Reference value :  8.51378e-06
 Reference value :  8.52615e-06
 Reference value :  8.53073e-06
 Reference value :  8.53821e-06
 Reference value :  8.54842e-06
 Reference value :  8.55272e-06
 Reference value :  8.56550e-06
 Reference value :  8.59511e-06
 Reference value :  8.68411e-06
 Reference value :  8.75013e-06
 Reference value :  8.75020e-06
 Reference value :  8.75026e-06
 Reference value :  8.75060e-06
 Reference value :  8.75126e-06
 Reference value :  8.75214e-06
 Reference value :  8.75348e-06
 Reference value :  8.75456e-06
 Reference value :  8.75593e-06
 Reference value :  8.76002e-06
 Reference value :  8.76719e-06
 Reference value :  8.79258e-06
 Reference value :  9.00000e-06
 Reference value :  9.00007e-06
 Reference value :  9.00016e-06
 Reference value :  9.00052e-06
 Reference value :  9.00182e-06
 Reference value :  9.00332e-06
 Reference value :  9.00548e-06
 Reference value :  9.00757e-06
 Reference value :  9.00985e-06
 Reference value :  9.01109e-06
 Reference value :  9.01367e-06
 Reference value :  9.01712e-06
 Reference value :  9.02259e-06
 Reference value :  9.04696e-06
 Reference value :  9.10629e-06
 Reference value :  9.25011e-06
 Reference value :  9.25017e-06
 Reference value :  9.25021e-06
 Reference value :  9.25032e-06
 Reference value :  9.25060e-06
 Reference value :  9.25126e-06
 Reference value :  9.25214e-06
 Reference value :  9.25349e-06
 Reference value :  9.25401e-06
 Reference value :  9.25526e-06
 Reference value :  9.25689e-06
 Reference value :  9.26275e-06
 Reference value :  9.29265e-06
 Reference value :  9.50001e-06
 Reference value :  9.50010e-06
 Reference value :  9.50022e-06
 Reference value :  9.50052e-06
 Reference value :  9.50131e-06
 Reference value :  9.50231e-06
 Reference value :  9.50332e-06
 Reference value :  9.50448e-06
 Reference value :  9.50585e-06
 Reference value :  9.50852e-06
 Reference value :  9.51005e-06
 Reference value :  9.51274e-06
 Reference value :  9.51374e-06
 Reference value :  9.51582e-06
 Reference value :  9.51786e-06
 Reference value :  9.52061e-06
 Reference value :  9.52523e-06
 Reference value :  9.53895e-06
 Reference value :  9.54652e-06
 Reference value :  9.54950e-06
 Reference value :  9.55586e-06
 Reference value :  9.56513e-06
 Reference value :  9.57692e-06
 Reference value :  9.60723e-06
 Reference value :  9.75010e-06
 Reference value :  9.75017e-06
 Reference value :  9.75021e-06
 Reference value :  9.75044e-06
 Reference value :  9.75126e-06
 Reference value :  9.75214e-06
 Reference value :  9.75346e-06
 Reference value :  9.75395e-06
 Reference value :  9.75514e-06
 Reference value :  9.75585e-06
 Reference value :  9.75815e-06
 Reference value :  9.76671e-06
 Reference value :  9.79043e-06
 Reference value :  9.88533e-06
 Reference value :  1.00000e-05
 Reference value :  1.00001e-05
 Reference value :  1.00001e-05
 Reference value :  1.00002e-05
 Reference value :  1.00002e-05
 Reference value :  1.00003e-05
 Reference value :  1.00009e-05
 Reference value :  1.00017e-05
 Reference value :  1.00027e-05
 Reference value :  1.00032e-05
 Reference value :  1.00044e-05
 Reference value :  1.00052e-05
 Reference value :  1.00067e-05
 Reference value :  1.00083e-05
 Reference value :  1.00103e-05
 Reference value :  1.00179e-05
 Reference value :  1.00743e-05
 Reference value :  1.02501e-05
 Reference value :  1.02502e-05
 Reference value :  1.02503e-05
 Reference value :  1.02506e-05
 Reference value :  1.02513e-05
 Reference value :  1.02521e-05
 Reference value :  1.02535e-05
 Reference value :  1.02546e-05
 Reference value :  1.02560e-05
 Reference value :  1.02577e-05
 Reference value :  1.02617e-05
 Reference value :  1.02723e-05
 Reference value :  1.03167e-05
 Reference value :  1.05000e-05
 Reference value :  1.05001e-05
 Reference value :  1.05001e-05
 Reference value :  1.05003e-05
 Reference value :  1.05013e-05
 Reference value :  1.05023e-05
 Reference value :  1.05033e-05
 Reference value :  1.05052e-05
 Reference value :  1.05065e-05
 Reference value :  1.05094e-05
 Reference value :  1.05115e-05
 Reference value :  1.05127e-05
 Reference value :  1.05135e-05
 Reference value :  1.05153e-05
 Reference value :  1.05173e-05
 Reference value :  1.05196e-05
 Reference value :  1.05276e-05
 Reference value :  1.06136e-05
 Reference value :  1.07501e-05
 Reference value :  1.07501e-05
 Reference value :  1.07502e-05
 Reference value :  1.07503e-05
 Reference value :  1.07508e-05
 Reference value :  1.07522e-05
 Reference value :  1.07535e-05
 Reference value :  1.07546e-05
 Reference value :  1.07560e-05
 Reference value :  1.07601e-05
 Reference value :  1.07762e-05
 Reference value :  1.10000e-05
 Reference value :  1.10001e-05
 Reference value :  1.10002e-05
 Reference value :  1.10009e-05
 Reference value :  1.10017e-05
 Reference value :  1.10027e-05
 Reference value :  1.10032e-05
 Reference value :  1.10044e-05
 Reference value :  1.10052e-05
 Reference value :  1.10067e-05
 Reference value :  1.10083e-05
 Reference value :  1.10103e-05
 Reference value :  1.10178e-05
 Reference value :  1.10736e-05
 Reference value :  1.12501e-05
 Reference value :  1.12502e-05
 Reference value :  1.12502e-05
 Reference value :  1.12504e-05
 Reference value :  1.12513e-05
 Reference value :  1.12521e-05
 Reference value :  1.12535e-05
 Reference value :  1.12540e-05
 Reference value :  1.12553e-05
 Reference value :  1.12568e-05
 Reference value :  1.12598e-05
 Reference value :  1.12668e-05
 Reference value :  1.13165e-05
 Reference value :  1.15000e-05
 Reference value :  1.15001e-05
 Reference value :  1.15002e-05
 Reference value :  1.15009e-05
 Reference value :  1.15023e-05
 Reference value :  1.15033e-05
 Reference value :  1.15052e-05
 Reference value :  1.15065e-05
 Reference value :  1.15094e-05
 Reference value :  1.15115e-05
 Reference value :  1.15135e-05
 Reference value :  1.15153e-05
 Reference value :  1.15184e-05
 Reference value :  1.15276e-05
 Reference value :  1.15658e-05
 Reference value :  1.15998e-05
 Reference value :  1.16141e-05
 Reference value :  1.16231e-05
 Reference value :  1.16331e-05
 Reference value :  1.16972e-05
 Reference value :  1.17501e-05
 Reference value :  1.17502e-05
 Reference value :  1.17502e-05
 Reference value :  1.17504e-05
 Reference value :  1.17513e-05
 Reference value :  1.17522e-05
 Reference value :  1.17535e-05
 Reference value :  1.17546e-05
 Reference value :  1.17560e-05
 Reference value :  1.17602e-05
 Reference value :  1.17676e-05
 Reference value :  1.17757e-05
 Reference value :  1.17847e-05
 Reference value :  1.18062e-05
 Reference value :  1.18477e-05
 Reference value :  1.18892e-05
 Reference value :  1.20000e-05
 Reference value :  1.20001e-05
 Reference value :  1.20001e-05
 Reference value :  1.20003e-05
 Reference value :  1.20013e-05
 Reference value :  1.20022e-05
 Reference value :  1.20032e-05
 Reference value :  1.20052e-05
 Reference value :  1.20067e-05
 Reference value :  1.20083e-05
 Reference value :  1.20103e-05
 Reference value :  1.20178e-05
 Reference value :  1.20737e-05
 Reference value :  1.22501e-05
 Reference value :  1.22502e-05
 Reference value :  1.22503e-05
 Reference value :  1.22506e-05
 Reference value :  1.22517e-05
 Reference value :  1.22535e-05
 Reference value :  1.22546e-05
 Reference value :  1.22560e-05
 Reference value :  1.22576e-05
 Reference value :  1.22598e-05
 Reference value :  1.22668e-05
 Reference value :  1.23166e-05
 Reference value :  1.25000e-05
 Reference value :  1.25001e-05
 Reference value :  1.25002e-05
 Reference value :  1.25009e-05
 Reference value :  1.25023e-05
 Reference value :  1.25033e-05
 Reference value :  1.25046e-05
 Reference value :  1.25058e-05
 Reference value :  1.25083e-05
 Reference value :  1.25105e-05
 Reference value :  1.25116e-05
 Reference value :  1.25135e-05
 Reference value :  1.25154e-05
 Reference value :  1.25174e-05
 Reference value :  1.25196e-05
 Reference value :  1.25232e-05
 Reference value :  1.25346e-05
 Reference value :  1.25380e-05
 Reference value :  1.25429e-05
 Reference value :  1.25531e-05
 Reference value :  1.25692e-05
 Reference value :  1.26249e-05
 Reference value :  1.27501e-05
 Reference value :  1.27502e-05
 Reference value :  1.27502e-05
 Reference value :  1.27504e-05
 Reference value :  1.27510e-05
 Reference value :  1.27524e-05
 Reference value :  1.27538e-05
 Reference value :  1.27550e-05
 Reference value :  1.27565e-05
 Reference value :  1.27614e-05
 Reference value :  1.28126e-05
 Reference value :  1.30000e-05
 Reference value :  1.30001e-05
 Reference value :  1.30002e-05
 Reference value :  1.30006e-05
 Reference value :  1.30020e-05
 Reference value :  1.30030e-05
 Reference value :  1.30041e-05
 Reference value :  1.30057e-05
 Reference value :  1.30064e-05
 Reference value :  1.30083e-05
 Reference value :  1.30112e-05
 Reference value :  1.30269e-05
 Reference value :  1.31329e-05
 Reference value :  1.32501e-05
 Reference value :  1.32502e-05
 Reference value :  1.32503e-05
 Reference value :  1.32507e-05
 Reference value :  1.32519e-05
 Reference value :  1.32538e-05
 Reference value :  1.32544e-05
 Reference value :  1.32557e-05
 Reference value :  1.32564e-05
 Reference value :  1.32589e-05
 Reference value :  1.32707e-05
 Reference value :  1.33502e-05
 Reference value :  1.35000e-05
 Reference value :  1.35001e-05
 Reference value :  1.35002e-05
 Reference value :  1.35003e-05
 Reference value :  1.35009e-05
 Reference value :  1.35020e-05
 Reference value :  1.35024e-05
 Reference value :  1.35035e-05
 Reference value :  1.35047e-05
 Reference value :  1.35059e-05
 Reference value :  1.35087e-05
 Reference value :  1.35119e-05
 Reference value :  1.35143e-05
 Reference value :  1.35164e-05
 Reference value :  1.35187e-05
 Reference value :  1.35239e-05
 Reference value :  1.35340e-05
 Reference value :  1.35461e-05
 Reference value :  1.35532e-05
 Reference value :  1.35592e-05
 Reference value :  1.35728e-05
 Reference value :  1.35946e-05
 Reference value :  1.36578e-05
 Reference value :  1.37501e-05
 Reference value :  1.37501e-05
 Reference value :  1.37502e-05
 Reference value :  1.37503e-05
 Reference value :  1.37504e-05
 Reference value :  1.37507e-05
 Reference value :  1.37510e-05
 Reference value :  1.37519e-05
 Reference value :  1.37531e-05
 Reference value :  1.37543e-05
 Reference value :  1.37550e-05
 Reference value :  1.37564e-05
 Reference value :  1.37612e-05
 Reference value :  1.37828e-05
 Reference value :  1.38451e-05
 Reference value :  1.40000e-05
 Reference value :  1.40000e-05
 Reference value :  1.40001e-05
 Reference value :  1.40002e-05
 Reference value :  1.40003e-05
 Reference value :  1.40009e-05
 Reference value :  1.40024e-05
 Reference value :  1.40035e-05
 Reference value :  1.40047e-05
 Reference value :  1.40056e-05
 Reference value :  1.40065e-05
 Reference value :  1.40084e-05
 Reference value :  1.40093e-05
 Reference value :  1.40114e-05
 Reference value :  1.40151e-05
 Reference value :  1.40255e-05
 Reference value :  1.40590e-05
 Reference value :  1.40823e-05
 Reference value :  1.41261e-05
 Reference value :  1.42018e-05
 Reference value :  1.42501e-05
 Reference value :  1.42501e-05
 Reference value :  1.42502e-05
 Reference value :  1.42502e-05
 Reference value :  1.42503e-05
 Reference value :  1.42504e-05
 Reference value :  1.42507e-05
 Reference value :  1.42515e-05
 Reference value :  1.42524e-05
 Reference value :  1.42538e-05
 Reference value :  1.42544e-05
 Reference value :  1.42557e-05
 Reference value :  1.42564e-05
 Reference value :  1.42589e-05
 Reference value :  1.42645e-05
 Reference value :  1.43054e-05
 Reference value :  1.45000e-05
 Reference value :  1.45000e-05
 Reference value :  1.45001e-05
 Reference value :  1.45002e-05
 Reference value :  1.45009e-05
 Reference value :  1.45020e-05
 Reference value :  1.45030e-05
 Reference value :  1.45041e-05
 Reference value :  1.45047e-05
 Reference value :  1.45059e-05
 Reference value :  1.45088e-05
 Reference value :  1.45119e-05
 Reference value :  1.45144e-05
 Reference value :  1.45164e-05
 Reference value :  1.45200e-05
 Reference value :  1.45303e-05
 Reference value :  1.45357e-05
 Reference value :  1.45437e-05
 Reference value :  1.45478e-05
 Reference value :  1.45575e-05
 Reference value :  1.45764e-05
 Reference value :  1.46474e-05
 Reference value :  1.47501e-05
 Reference value :  1.47502e-05
 Reference value :  1.47502e-05
 Reference value :  1.47503e-05
 Reference value :  1.47505e-05
 Reference value :  1.47514e-05
 Reference value :  1.47524e-05
 Reference value :  1.47543e-05
 Reference value :  1.47564e-05
 Reference value :  1.47612e-05
 Reference value :  1.47832e-05
 Reference value :  1.50000e-05
 Reference value :  1.50001e-05
 Reference value :  1.50001e-05
 Reference value :  1.50003e-05
 Reference value :  1.50015e-05
 Reference value :  1.50024e-05
 Reference value :  1.50035e-05
 Reference value :  1.50056e-05
 Reference value :  1.50074e-05
 Reference value :  1.50093e-05
 Reference value :  1.50114e-05
 Reference value :  1.50255e-05
 Reference value :  1.51857e-05
 Reference value :  1.52502e-05
 Reference value :  1.52503e-05
 Reference value :  1.52505e-05
 Reference value :  1.52515e-05
 Reference value :  1.52524e-05
 Reference value :  1.52538e-05
 Reference value :  1.52544e-05
 Reference value :  1.52557e-05
 Reference value :  1.52564e-05
 Reference value :  1.52581e-05
 Reference value :  1.52619e-05
 Reference value :  1.52810e-05
 Reference value :  1.54216e-05
 Reference value :  1.55013e-05
 Reference value :  1.55052e-05
 Reference value :  1.55065e-05
 Reference value :  1.55077e-05
 Reference value :  1.55101e-05
 Reference value :  1.55111e-05
 Reference value :  1.55133e-05
 Reference value :  1.55149e-05
 Reference value :  1.55158e-05
 Reference value :  1.55178e-05
 Reference value :  1.55221e-05
 Reference value :  1.55339e-05
 Reference value :  1.56332e-05
 Reference value :  1.57501e-05
 Reference value :  1.57502e-05
 Reference value :  1.57503e-05
 Reference value :  1.57504e-05
 Reference value :  1.57509e-05
 Reference value :  1.57515e-05
 Reference value :  1.57529e-05
 Reference value :  1.57542e-05
 Reference value :  1.57555e-05
 Reference value :  1.57570e-05
 Reference value :  1.57638e-05
 Reference value :  1.57950e-05
 Reference value :  1.58776e-05
 Reference value :  1.60000e-05
 Reference value :  1.60000e-05
 Reference value :  1.60001e-05
 Reference value :  1.60002e-05
 Reference value :  1.60003e-05
 Reference value :  1.60009e-05
 Reference value :  1.60020e-05
 Reference value :  1.60029e-05
 Reference value :  1.60035e-05
 Reference value :  1.60047e-05
 Reference value :  1.60065e-05
 Reference value :  1.60084e-05
 Reference value :  1.60103e-05
 Reference value :  1.60126e-05
 Reference value :  1.60254e-05
 Reference value :  1.60376e-05
 Reference value :  1.61007e-05
 Reference value :  1.62501e-05
 Reference value :  1.62501e-05
 Reference value :  1.62502e-05
 Reference value :  1.62503e-05
 Reference value :  1.62505e-05
 Reference value :  1.62510e-05
 Reference value :  1.62519e-05
 Reference value :  1.62531e-05
 Reference value :  1.62544e-05
 Reference value :  1.62557e-05
 Reference value :  1.62573e-05
 Reference value :  1.62603e-05
 Reference value :  1.62672e-05
 Reference value :  1.63165e-05
 Reference value :  1.65000e-05
 Reference value :  1.65001e-05
 Reference value :  1.65002e-05
 Reference value :  1.65006e-05
 Reference value :  1.65020e-05
 Reference value :  1.65030e-05
 Reference value :  1.65041e-05
 Reference value :  1.65046e-05
 Reference value :  1.65065e-05
 Reference value :  1.65082e-05
 Reference value :  1.65097e-05
 Reference value :  1.65114e-05
 Reference value :  1.65167e-05
 Reference value :  1.65281e-05
 Reference value :  1.65465e-05
 Reference value :  1.65625e-05
 Reference value :  1.65760e-05
 Reference value :  1.65846e-05
 Reference value :  1.66067e-05
 Reference value :  1.66383e-05
 Reference value :  1.67406e-05
 Reference value :  1.67501e-05
 Reference value :  1.67502e-05
 Reference value :  1.67503e-05
 Reference value :  1.67506e-05
 Reference value :  1.67508e-05
 Reference value :  1.67512e-05
 Reference value :  1.67516e-05
 Reference value :  1.67526e-05
 Reference value :  1.67533e-05
 Reference value :  1.67541e-05
 Reference value :  1.67560e-05
 Reference value :  1.67586e-05
 Reference value :  1.67681e-05
 Reference value :  1.68347e-05
 Reference value :  1.70000e-05
 Reference value :  1.70015e-05
 Reference value :  1.70046e-05
 Reference value :  1.70061e-05
 Reference value :  1.70093e-05
 Reference value :  1.70164e-05
 Reference value :  1.70255e-05
 Reference value :  1.70289e-05
 Reference value :  1.70316e-05
 Reference value :  1.70357e-05
 Reference value :  1.70388e-05
 Reference value :  1.70467e-05
 Reference value :  1.70589e-05
 Reference value :  1.70940e-05
 Reference value :  1.72501e-05
 Reference value :  1.72502e-05
 Reference value :  1.72502e-05
 Reference value :  1.72506e-05
 Reference value :  1.72517e-05
 Reference value :  1.72535e-05
 Reference value :  1.72546e-05
 Reference value :  1.72559e-05
 Reference value :  1.72630e-05
 Reference value :  1.73255e-05
 Reference value :  1.75000e-05
 Reference value :  1.75001e-05
 Reference value :  1.75002e-05
 Reference value :  1.75009e-05
 Reference value :  1.75023e-05
 Reference value :  1.75033e-05
 Reference value :  1.75055e-05
 Reference value :  1.75076e-05
 Reference value :  1.75111e-05
 Reference value :  1.75137e-05
 Reference value :  1.75190e-05
 Reference value :  1.75474e-05
 Reference value :  1.76795e-05
 Reference value :  1.77501e-05
 Reference value :  1.77502e-05
 Reference value :  1.77503e-05
 Reference value :  1.77506e-05
 Reference value :  1.77513e-05
 Reference value :  1.77517e-05
 Reference value :  1.77527e-05
 Reference value :  1.77535e-05
 Reference value :  1.77540e-05
 Reference value :  1.77553e-05
 Reference value :  1.77569e-05
 Reference value :  1.77627e-05
 Reference value :  1.77927e-05
 Reference value :  1.80000e-05
 Reference value :  1.80018e-05
 Reference value :  1.80072e-05
 Reference value :  1.80111e-05
 Reference value :  1.80127e-05
 Reference value :  1.80154e-05
 Reference value :  1.80181e-05
 Reference value :  1.80231e-05
 Reference value :  1.80303e-05
 Reference value :  1.80378e-05
 Reference value :  1.80446e-05
 Reference value :  1.80505e-05
 Reference value :  1.80569e-05
 Reference value :  1.80658e-05
 Reference value :  1.80837e-05
 Reference value :  1.81356e-05
 Reference value :  1.82501e-05
 Reference value :  1.82502e-05
 Reference value :  1.82503e-05
 Reference value :  1.82506e-05
 Reference value :  1.82513e-05
 Reference value :  1.82521e-05
 Reference value :  1.82532e-05
 Reference value :  1.82537e-05
 Reference value :  1.82547e-05
 Reference value :  1.82570e-05
 Reference value :  1.82636e-05
 Reference value :  1.83447e-05
 Reference value :  1.85000e-05
 Reference value :  1.85001e-05
 Reference value :  1.85002e-05
 Reference value :  1.85005e-05
 Reference value :  1.85013e-05
 Reference value :  1.85022e-05
 Reference value :  1.85032e-05
 Reference value :  1.85052e-05
 Reference value :  1.85067e-05
 Reference value :  1.85083e-05
 Reference value :  1.85115e-05
 Reference value :  1.85248e-05
 Reference value :  1.87444e-05
 Reference value :  1.87501e-05
 Reference value :  1.87502e-05
 Reference value :  1.87504e-05
 Reference value :  1.87513e-05
 Reference value :  1.87522e-05
 Reference value :  1.87535e-05
 Reference value :  1.87546e-05
 Reference value :  1.87560e-05
 Reference value :  1.87576e-05
 Reference value :  1.87616e-05
 Reference value :  1.87720e-05
 Reference value :  1.88150e-05
 Reference value :  1.90000e-05
 Reference value :  1.90001e-05
 Reference value :  1.90001e-05
 Reference value :  1.90003e-05
 Reference value :  1.90009e-05
 Reference value :  1.90018e-05
 Reference value :  1.90028e-05
 Reference value :  1.90039e-05
 Reference value :  1.90052e-05
 Reference value :  1.90058e-05
 Reference value :  1.90083e-05
 Reference value :  1.90105e-05
 Reference value :  1.90115e-05
 Reference value :  1.90135e-05
 Reference value :  1.90153e-05
 Reference value :  1.90172e-05
 Reference value :  1.90196e-05
 Reference value :  1.90275e-05
 Reference value :  1.90711e-05
 Reference value :  1.92300e-05
 Reference value :  1.92501e-05
 Reference value :  1.92502e-05
 Reference value :  1.92506e-05
 Reference value :  1.92517e-05
 Reference value :  1.92535e-05
 Reference value :  1.92546e-05
 Reference value :  1.92560e-05
 Reference value :  1.92583e-05
 Reference value :  1.92675e-05
 Reference value :  1.93252e-05
 Reference value :  1.95020e-05
 Reference value :  1.95061e-05
 Reference value :  1.95082e-05
 Reference value :  1.95124e-05
 Reference value :  1.95144e-05
 Reference value :  1.95222e-05
 Reference value :  1.95433e-05
 Reference value :  1.96279e-05
 Reference value :  1.97501e-05
 Reference value :  1.97501e-05
 Reference value :  1.97502e-05
 Reference value :  1.97502e-05
 Reference value :  1.97503e-05
 Reference value :  1.97506e-05
 Reference value :  1.97513e-05
 Reference value :  1.97521e-05
 Reference value :  1.97527e-05
 Reference value :  1.97536e-05
 Reference value :  1.97547e-05
 Reference value :  1.97560e-05
 Reference value :  1.97577e-05
 Reference value :  1.97599e-05
 Reference value :  1.97668e-05
 Reference value :  1.97814e-05
 Reference value :  1.98635e-05
 Reference value :  2.00000e-05
 Reference value :  2.00000e-05
 Reference value :  2.00001e-05
 Reference value :  2.00002e-05
 Reference value :  2.00003e-05
 Reference value :  2.00009e-05
 Reference value :  2.00018e-05
 Reference value :  2.00028e-05
 Reference value :  2.00033e-05
 Reference value :  2.00046e-05
 Reference value :  2.00058e-05
 Reference value :  2.00073e-05
 Reference value :  2.00094e-05
 Reference value :  2.00105e-05
 Reference value :  2.00116e-05
 Reference value :  2.00127e-05
 Reference value :  2.00135e-05
 Reference value :  2.00153e-05
 Reference value :  2.00173e-05
 Reference value :  2.00184e-05
 Reference value :  2.00215e-05
 Reference value :  2.00358e-05
 Reference value :  2.00673e-05
 Reference value :  2.01015e-05
 Reference value :  2.01157e-05
 Reference value :  2.01242e-05
 Reference value :  2.01315e-05
 Reference value :  2.01365e-05
 Reference value :  2.01535e-05
 Reference value :  2.02248e-05
 Reference value :  2.02501e-05
 Reference value :  2.02502e-05
 Reference value :  2.02503e-05
 Reference value :  2.02506e-05
 Reference value :  2.02517e-05
 Reference value :  2.02535e-05
 Reference value :  2.02546e-05
 Reference value :  2.02560e-05
 Reference value :  2.02602e-05
 Reference value :  2.02669e-05
 Reference value :  2.02714e-05
 Reference value :  2.02750e-05
 Reference value :  2.02839e-05
 Reference value :  2.03050e-05
 Reference value :  2.03714e-05
 Reference value :  2.04046e-05
 Reference value :  2.05000e-05
 Reference value :  2.05007e-05
 Reference value :  2.05020e-05
 Reference value :  2.05027e-05
 Reference value :  2.05039e-05
 Reference value :  2.05054e-05
 Reference value :  2.05070e-05
 Reference value :  2.05085e-05
 Reference value :  2.05105e-05
 Reference value :  2.05137e-05
 Reference value :  2.05231e-05
 Reference value :  2.05567e-05
 Reference value :  2.06910e-05
 Reference value :  2.07501e-05
 Reference value :  2.07502e-05
 Reference value :  2.07503e-05
 Reference value :  2.07506e-05
 Reference value :  2.07517e-05
 Reference value :  2.07535e-05
 Reference value :  2.07546e-05
 Reference value :  2.07560e-05
 Reference value :  2.07576e-05
 Reference value :  2.07617e-05
 Reference value :  2.07804e-05
 Reference value :  2.08554e-05
 Reference value :  2.10000e-05
 Reference value :  2.10001e-05
 Reference value :  2.10002e-05
 Reference value :  2.10005e-05
 Reference value :  2.10013e-05
 Reference value :  2.10028e-05
 Reference value :  2.10039e-05
 Reference value :  2.10052e-05
 Reference value :  2.10065e-05
 Reference value :  2.10083e-05
 Reference value :  2.10105e-05
 Reference value :  2.10116e-05
 Reference value :  2.10127e-05
 Reference value :  2.10135e-05
 Reference value :  2.10153e-05
 Reference value :  2.10173e-05
 Reference value :  2.10185e-05
 Reference value :  2.10215e-05
 Reference value :  2.10266e-05
 Reference value :  2.10346e-05
 Reference value :  2.10381e-05
 Reference value :  2.10405e-05
 Reference value :  2.10453e-05
 Reference value :  2.10577e-05
 Reference value :  2.10694e-05
 Reference value :  2.11253e-05
 Reference value :  2.12501e-05
 Reference value :  2.12502e-05
 Reference value :  2.12502e-05
 Reference value :  2.12503e-05
 Reference value :  2.12504e-05
 Reference value :  2.12507e-05
 Reference value :  2.12515e-05
 Reference value :  2.12524e-05
 Reference value :  2.12538e-05
 Reference value :  2.12550e-05
 Reference value :  2.12565e-05
 Reference value :  2.12614e-05
 Reference value :  2.12853e-05
 Reference value :  2.14746e-05
 Reference value :  2.15000e-05
 Reference value :  2.15001e-05
 Reference value :  2.15002e-05
 Reference value :  2.15003e-05
 Reference value :  2.15009e-05
 Reference value :  2.15020e-05
 Reference value :  2.15030e-05
 Reference value :  2.15041e-05
 Reference value :  2.15057e-05
 Reference value :  2.15073e-05
 Reference value :  2.15093e-05
 Reference value :  2.15113e-05
 Reference value :  2.15190e-05
 Reference value :  2.16328e-05
 Reference value :  2.17501e-05
 Reference value :  2.17502e-05
 Reference value :  2.17503e-05
 Reference value :  2.17507e-05
 Reference value :  2.17519e-05
 Reference value :  2.17531e-05
 Reference value :  2.17544e-05
 Reference value :  2.17564e-05
 Reference value :  2.17612e-05
 Reference value :  2.17829e-05
 Reference value :  2.20000e-05
 Reference value :  2.20011e-05
 Reference value :  2.20044e-05
 Reference value :  2.20064e-05
 Reference value :  2.20082e-05
 Reference value :  2.20107e-05
 Reference value :  2.20120e-05
 Reference value :  2.20143e-05
 Reference value :  2.20164e-05
 Reference value :  2.20185e-05
 Reference value :  2.20230e-05
 Reference value :  2.20307e-05
 Reference value :  2.20480e-05
 Reference value :  2.20573e-05
 Reference value :  2.20625e-05
 Reference value :  2.20815e-05
 Reference value :  2.21149e-05
 Reference value :  2.22251e-05
 Reference value :  2.22501e-05
 Reference value :  2.22502e-05
 Reference value :  2.22504e-05
 Reference value :  2.22509e-05
 Reference value :  2.22515e-05
 Reference value :  2.22529e-05
 Reference value :  2.22542e-05
 Reference value :  2.22561e-05
 Reference value :  2.22604e-05
 Reference value :  2.22933e-05
 Reference value :  2.23739e-05
 Reference value :  2.25000e-05
 Reference value :  2.25001e-05
 Reference value :  2.25001e-05
 Reference value :  2.25002e-05
 Reference value :  2.25003e-05
 Reference value :  2.25009e-05
 Reference value :  2.25020e-05
 Reference value :  2.25024e-05
 Reference value :  2.25035e-05
 Reference value :  2.25047e-05
 Reference value :  2.25065e-05
 Reference value :  2.25084e-05
 Reference value :  2.25103e-05
 Reference value :  2.25126e-05
 Reference value :  2.25187e-05
 Reference value :  2.25377e-05
 Reference value :  2.25824e-05
 Reference value :  2.26279e-05
 Reference value :  2.26707e-05
 Reference value :  2.27050e-05
 Reference value :  2.27501e-05
 Reference value :  2.27501e-05
 Reference value :  2.27502e-05
 Reference value :  2.27503e-05
 Reference value :  2.27505e-05
 Reference value :  2.27515e-05
 Reference value :  2.27524e-05
 Reference value :  2.27538e-05
 Reference value :  2.27550e-05
 Reference value :  2.27564e-05
 Reference value :  2.27612e-05
 Reference value :  2.27707e-05
 Reference value :  2.28503e-05
 Reference value :  2.30000e-05
 Reference value :  2.30011e-05
 Reference value :  2.30044e-05
 Reference value :  2.30055e-05
 Reference value :  2.30063e-05
 Reference value :  2.30081e-05
 Reference value :  2.30106e-05
 Reference value :  2.30119e-05
 Reference value :  2.30143e-05
 Reference value :  2.30164e-05
 Reference value :  2.30185e-05
 Reference value :  2.30211e-05
 Reference value :  2.30307e-05
 Reference value :  2.30358e-05
 Reference value :  2.30434e-05
 Reference value :  2.30515e-05
 Reference value :  2.30698e-05
 Reference value :  2.31231e-05
 Reference value :  2.32501e-05
 Reference value :  2.32501e-05
 Reference value :  2.32502e-05
 Reference value :  2.32503e-05
 Reference value :  2.32504e-05
 Reference value :  2.32507e-05
 Reference value :  2.32512e-05
 Reference value :  2.32515e-05
 Reference value :  2.32524e-05
 Reference value :  2.32537e-05
 Reference value :  2.32542e-05
 Reference value :  2.32554e-05
 Reference value :  2.32569e-05
 Reference value :  2.32604e-05
 Reference value :  2.32682e-05
 Reference value :  2.32932e-05
 Reference value :  2.34704e-05
 Reference value :  2.35000e-05
 Reference value :  2.35001e-05
 Reference value :  2.35003e-05
 Reference value :  2.35015e-05
 Reference value :  2.35024e-05
 Reference value :  2.35035e-05
 Reference value :  2.35047e-05
 Reference value :  2.35065e-05
 Reference value :  2.35084e-05
 Reference value :  2.35103e-05
 Reference value :  2.35126e-05
 Reference value :  2.35376e-05
 Reference value :  2.36861e-05
 Reference value :  2.37501e-05
 Reference value :  2.37502e-05
 Reference value :  2.37503e-05
 Reference value :  2.37507e-05
 Reference value :  2.37515e-05
 Reference value :  2.37531e-05
 Reference value :  2.37544e-05
 Reference value :  2.37557e-05
 Reference value :  2.37564e-05
 Reference value :  2.37581e-05
 Reference value :  2.37619e-05
 Reference value :  2.37809e-05
 Reference value :  2.39211e-05
 Reference value :  2.40001e-05
 Reference value :  2.40001e-05
 Reference value :  2.40002e-05
 Reference value :  2.40003e-05
 Reference value :  2.40009e-05
 Reference value :  2.40020e-05
 Reference value :  2.40030e-05
 Reference value :  2.40035e-05
 Reference value :  2.40046e-05
 Reference value :  2.40058e-05
 Reference value :  2.40082e-05
 Reference value :  2.40107e-05
 Reference value :  2.40129e-05
 Reference value :  2.40146e-05
 Reference value :  2.40155e-05
 Reference value :  2.40187e-05
 Reference value :  2.40243e-05
 Reference value :  2.40433e-05
 Reference value :  2.41340e-05
 Reference value :  2.42501e-05
 Reference value :  2.42502e-05
 Reference value :  2.42503e-05
 Reference value :  2.42505e-05
 Reference value :  2.42510e-05
 Reference value :  2.42524e-05
 Reference value :  2.42538e-05
 Reference value :  2.42543e-05
 Reference value :  2.42563e-05
 Reference value :  2.42588e-05
 Reference value :  2.42700e-05
 Reference value :  2.43422e-05
 Reference value :  2.45000e-05
 Reference value :  2.45001e-05
 Reference value :  2.45002e-05
 Reference value :  2.45009e-05
 Reference value :  2.45024e-05
 Reference value :  2.45035e-05
 Reference value :  2.45047e-05
 Reference value :  2.45065e-05
 Reference value :  2.45084e-05
 Reference value :  2.45103e-05
 Reference value :  2.45126e-05
 Reference value :  2.45376e-05
 Reference value :  2.47501e-05
 Reference value :  2.47502e-05
 Reference value :  2.47503e-05
 Reference value :  2.47505e-05
 Reference value :  2.47515e-05
 Reference value :  2.47524e-05
 Reference value :  2.47538e-05
 Reference value :  2.47550e-05
 Reference value :  2.47564e-05
 Reference value :  2.47581e-05
 Reference value :  2.47603e-05
 Reference value :  2.47641e-05
 Reference value :  2.47809e-05
 Reference value :  2.49210e-05
 Reference value :  2.50000e-05
 Reference value :  2.50001e-05
 Reference value :  2.50002e-05
 Reference value :  2.50003e-05
 Reference value :  2.50009e-05
 Reference value :  2.50020e-05
 Reference value :  2.50024e-05
 Reference value :  2.50035e-05
 Reference value :  2.50046e-05
 Reference value :  2.50065e-05
 Reference value :  2.50090e-05
 Reference value :  2.50105e-05
 Reference value :  2.50123e-05
 Reference value :  2.50194e-05
 Reference value :  2.50370e-05
 Reference value :  2.50625e-05
 Reference value :  2.50760e-05
 Reference value :  2.50846e-05
 Reference value :  2.51217e-05
 Reference value :  2.51575e-05
 Reference value :  2.52501e-05
 Reference value :  2.52502e-05
 Reference value :  2.52503e-05
 Reference value :  2.52508e-05
 Reference value :  2.52516e-05
 Reference value :  2.52526e-05
 Reference value :  2.52541e-05
 Reference value :  2.52560e-05
 Reference value :  2.52586e-05
 Reference value :  2.52778e-05
 Reference value :  2.54096e-05
 Reference value :  2.55015e-05
 Reference value :  2.55046e-05
 Reference value :  2.55061e-05
 Reference value :  2.55093e-05
 Reference value :  2.55164e-05
 Reference value :  2.55255e-05
 Reference value :  2.55289e-05
 Reference value :  2.55316e-05
 Reference value :  2.55357e-05
 Reference value :  2.55389e-05
 Reference value :  2.55467e-05
 Reference value :  2.55589e-05
 Reference value :  2.55940e-05
 Reference value :  2.57501e-05
 Reference value :  2.57502e-05
 Reference value :  2.57502e-05
 Reference value :  2.57506e-05
 Reference value :  2.57517e-05
 Reference value :  2.57535e-05
 Reference value :  2.57546e-05
 Reference value :  2.57559e-05
 Reference value :  2.57583e-05
 Reference value :  2.57630e-05
 Reference value :  2.57758e-05
 Reference value :  2.58906e-05
 Reference value :  2.60000e-05
 Reference value :  2.60001e-05
 Reference value :  2.60001e-05
 Reference value :  2.60002e-05
 Reference value :  2.60009e-05
 Reference value :  2.60018e-05
 Reference value :  2.60028e-05
 Reference value :  2.60039e-05
 Reference value :  2.60055e-05
 Reference value :  2.60076e-05
 Reference value :  2.60111e-05
 Reference value :  2.60137e-05
 Reference value :  2.60190e-05
 Reference value :  2.60344e-05
 Reference value :  2.61095e-05
 Reference value :  2.62501e-05
 Reference value :  2.62501e-05
 Reference value :  2.62502e-05
 Reference value :  2.62503e-05
 Reference value :  2.62506e-05
 Reference value :  2.62513e-05
 Reference value :  2.62521e-05
 Reference value :  2.62535e-05
 Reference value :  2.62546e-05
 Reference value :  2.62560e-05
 Reference value :  2.62602e-05
 Reference value :  2.62773e-05
 Reference value :  2.63850e-05
 Reference value :  2.65018e-05
 Reference value :  2.65072e-05
 Reference value :  2.65111e-05
 Reference value :  2.65127e-05
 Reference value :  2.65141e-05
 Reference value :  2.65154e-05
 Reference value :  2.65181e-05
 Reference value :  2.65210e-05
 Reference value :  2.65259e-05
 Reference value :  2.65344e-05
 Reference value :  2.65378e-05
 Reference value :  2.65446e-05
 Reference value :  2.65505e-05
 Reference value :  2.65569e-05
 Reference value :  2.65658e-05
 Reference value :  2.65837e-05
 Reference value :  2.66356e-05
 Reference value :  2.67501e-05
 Reference value :  2.67501e-05
 Reference value :  2.67502e-05
 Reference value :  2.67503e-05
 Reference value :  2.67506e-05
 Reference value :  2.67513e-05
 Reference value :  2.67517e-05
 Reference value :  2.67527e-05
 Reference value :  2.67537e-05
 Reference value :  2.67547e-05
 Reference value :  2.67561e-05
 Reference value :  2.67570e-05
 Reference value :  2.67606e-05
 Reference value :  2.67690e-05
 Reference value :  2.68014e-05
 Reference value :  2.69311e-05
 Reference value :  2.70000e-05
 Reference value :  2.70000e-05
 Reference value :  2.70001e-05
 Reference value :  2.70001e-05
 Reference value :  2.70002e-05
 Reference value :  2.70005e-05
 Reference value :  2.70013e-05
 Reference value :  2.70017e-05
 Reference value :  2.70027e-05
 Reference value :  2.70038e-05
 Reference value :  2.70052e-05
 Reference value :  2.70060e-05
 Reference value :  2.70067e-05
 Reference value :  2.70083e-05
 Reference value :  2.70103e-05
 Reference value :  2.70137e-05
 Reference value :  2.70395e-05
 Reference value :  2.72444e-05
 Reference value :  2.72501e-05
 Reference value :  2.72502e-05
 Reference value :  2.72503e-05
 Reference value :  2.72508e-05
 Reference value :  2.72517e-05
 Reference value :  2.72535e-05
 Reference value :  2.72540e-05
 Reference value :  2.72560e-05
 Reference value :  2.72576e-05
 Reference value :  2.72616e-05
 Reference value :  2.72720e-05
 Reference value :  2.73150e-05
 Reference value :  2.75000e-05
 Reference value :  2.75001e-05
 Reference value :  2.75001e-05
 Reference value :  2.75003e-05
 Reference value :  2.75009e-05
 Reference value :  2.75023e-05
 Reference value :  2.75033e-05
 Reference value :  2.75052e-05
 Reference value :  2.75065e-05
 Reference value :  2.75094e-05
 Reference value :  2.75115e-05
 Reference value :  2.75135e-05
 Reference value :  2.75153e-05
 Reference value :  2.75172e-05
 Reference value :  2.75184e-05
 Reference value :  2.75214e-05
 Reference value :  2.75351e-05
 Reference value :  2.76117e-05
 Reference value :  2.77501e-05
 Reference value :  2.77502e-05
 Reference value :  2.77502e-05
 Reference value :  2.77504e-05
 Reference value :  2.77513e-05
 Reference value :  2.77522e-05
 Reference value :  2.77535e-05
 Reference value :  2.77546e-05
 Reference value :  2.77560e-05
 Reference value :  2.77601e-05
 Reference value :  2.77762e-05
 Reference value :  2.78882e-05
 Reference value :  2.80020e-05
 Reference value :  2.80082e-05
 Reference value :  2.80124e-05
 Reference value :  2.80164e-05
 Reference value :  2.80268e-05
 Reference value :  2.80836e-05
 Reference value :  2.82501e-05
 Reference value :  2.82502e-05
 Reference value :  2.82503e-05
 Reference value :  2.82506e-05
 Reference value :  2.82513e-05
 Reference value :  2.82521e-05
 Reference value :  2.82532e-05
 Reference value :  2.82541e-05
 Reference value :  2.82552e-05
 Reference value :  2.82568e-05
 Reference value :  2.82588e-05
 Reference value :  2.82636e-05
 Reference value :  2.82814e-05
 Reference value :  2.83635e-05
 Reference value :  2.85000e-05
 Reference value :  2.85001e-05
 Reference value :  2.85002e-05
 Reference value :  2.85005e-05
 Reference value :  2.85013e-05
 Reference value :  2.85028e-05
 Reference value :  2.85033e-05
 Reference value :  2.85046e-05
 Reference value :  2.85058e-05
 Reference value :  2.85073e-05
 Reference value :  2.85094e-05
 Reference value :  2.85105e-05
 Reference value :  2.85116e-05
 Reference value :  2.85135e-05
 Reference value :  2.85153e-05
 Reference value :  2.85173e-05
 Reference value :  2.85184e-05
 Reference value :  2.85215e-05
 Reference value :  2.85277e-05
 Reference value :  2.85489e-05
 Reference value :  2.85673e-05
 Reference value :  2.86015e-05
 Reference value :  2.86157e-05
 Reference value :  2.86242e-05
 Reference value :  2.86315e-05
 Reference value :  2.86365e-05
 Reference value :  2.86656e-05
 Reference value :  2.87248e-05
 Reference value :  2.87501e-05
 Reference value :  2.87502e-05
 Reference value :  2.87502e-05
 Reference value :  2.87503e-05
 Reference value :  2.87508e-05
 Reference value :  2.87517e-05
 Reference value :  2.87527e-05
 Reference value :  2.87540e-05
 Reference value :  2.87553e-05
 Reference value :  2.87568e-05
 Reference value :  2.87632e-05
 Reference value :  2.87669e-05
 Reference value :  2.87750e-05
 Reference value :  2.87908e-05
 Reference value :  2.88123e-05
 Reference value :  2.88714e-05
 Reference value :  2.89046e-05
 Reference value :  2.90007e-05
 Reference value :  2.90027e-05
 Reference value :  2.90039e-05
 Reference value :  2.90054e-05
 Reference value :  2.90070e-05
 Reference value :  2.90085e-05
 Reference value :  2.90116e-05
 Reference value :  2.90343e-05
 Reference value :  2.92501e-05
 Reference value :  2.92502e-05
 Reference value :  2.92502e-05
 Reference value :  2.92504e-05
 Reference value :  2.92513e-05
 Reference value :  2.92527e-05
 Reference value :  2.92540e-05
 Reference value :  2.92553e-05
 Reference value :  2.92568e-05
 Reference value :  2.92598e-05
 Reference value :  2.92668e-05
 Reference value :  2.92951e-05
 Reference value :  2.95000e-05
 Reference value :  2.95001e-05
 Reference value :  2.95002e-05
 Reference value :  2.95009e-05
 Reference value :  2.95023e-05
 Reference value :  2.95028e-05
 Reference value :  2.95033e-05
 Reference value :  2.95046e-05
 Reference value :  2.95058e-05
 Reference value :  2.95083e-05
 Reference value :  2.95105e-05
 Reference value :  2.95127e-05
 Reference value :  2.95144e-05
 Reference value :  2.95163e-05
 Reference value :  2.95185e-05
 Reference value :  2.95236e-05
 Reference value :  2.95307e-05
 Reference value :  2.95381e-05
 Reference value :  2.95430e-05
 Reference value :  2.95533e-05
 Reference value :  2.95631e-05
 Reference value :  2.96253e-05
 Reference value :  2.97501e-05
 Reference value :  2.97501e-05
 Reference value :  2.97502e-05
 Reference value :  2.97503e-05
 Reference value :  2.97507e-05
 Reference value :  2.97515e-05
 Reference value :  2.97531e-05
 Reference value :  2.97544e-05
 Reference value :  2.97565e-05
 Reference value :  2.97614e-05
 Reference value :  2.97853e-05
 Reference value :  3.00000e-05
 Reference value :  3.00001e-05
 Reference value :  3.00001e-05
 Reference value :  3.00003e-05
 Reference value :  3.00015e-05
 Reference value :  3.00024e-05
 Reference value :  3.00035e-05
 Reference value :  3.00049e-05
 Reference value :  3.00064e-05
 Reference value :  3.00083e-05
 Reference value :  3.00102e-05
 Reference value :  3.00125e-05
 Reference value :  3.00269e-05
 Reference value :  3.01328e-05
 Reference value :  3.02501e-05
 Reference value :  3.02502e-05
 Reference value :  3.02503e-05
 Reference value :  3.02507e-05
 Reference value :  3.02519e-05
 Reference value :  3.02531e-05
 Reference value :  3.02544e-05
 Reference value :  3.02557e-05
 Reference value :  3.02572e-05
 Reference value :  3.02645e-05
 Reference value :  3.03054e-05
 Reference value :  3.05000e-05
 Reference value :  3.05011e-05
 Reference value :  3.05044e-05
 Reference value :  3.05055e-05
 Reference value :  3.05064e-05
 Reference value :  3.05082e-05
 Reference value :  3.05107e-05
 Reference value :  3.05120e-05
 Reference value :  3.05133e-05
 Reference value :  3.05143e-05
 Reference value :  3.05164e-05
 Reference value :  3.05185e-05
 Reference value :  3.05212e-05
 Reference value :  3.05307e-05
 Reference value :  3.05416e-05
 Reference value :  3.05480e-05
 Reference value :  3.05526e-05
 Reference value :  3.05625e-05
 Reference value :  3.05747e-05
 Reference value :  3.06001e-05
 Reference value :  3.06759e-05
 Reference value :  3.07501e-05
 Reference value :  3.07502e-05
 Reference value :  3.07502e-05
 Reference value :  3.07503e-05
 Reference value :  3.07505e-05
 Reference value :  3.07509e-05
 Reference value :  3.07515e-05
 Reference value :  3.07524e-05
 Reference value :  3.07537e-05
 Reference value :  3.07548e-05
 Reference value :  3.07561e-05
 Reference value :  3.07604e-05
 Reference value :  3.07933e-05
 Reference value :  3.09411e-05
 Reference value :  3.10000e-05
 Reference value :  3.10001e-05
 Reference value :  3.10002e-05
 Reference value :  3.10003e-05
 Reference value :  3.10009e-05
 Reference value :  3.10020e-05
 Reference value :  3.10024e-05
 Reference value :  3.10035e-05
 Reference value :  3.10047e-05
 Reference value :  3.10065e-05
 Reference value :  3.10084e-05
 Reference value :  3.10093e-05
 Reference value :  3.10114e-05
 Reference value :  3.10151e-05
 Reference value :  3.10255e-05
 Reference value :  3.10591e-05
 Reference value :  3.10824e-05
 Reference value :  3.11279e-05
 Reference value :  3.11707e-05
 Reference value :  3.12050e-05
 Reference value :  3.12501e-05
 Reference value :  3.12501e-05
 Reference value :  3.12502e-05
 Reference value :  3.12503e-05
 Reference value :  3.12504e-05
 Reference value :  3.12507e-05
 Reference value :  3.12515e-05
 Reference value :  3.12524e-05
 Reference value :  3.12538e-05
 Reference value :  3.12550e-05
 Reference value :  3.12564e-05
 Reference value :  3.12612e-05
 Reference value :  3.12829e-05
 Reference value :  3.15000e-05
 Reference value :  3.15001e-05
 Reference value :  3.15001e-05
 Reference value :  3.15003e-05
 Reference value :  3.15015e-05
 Reference value :  3.15024e-05
 Reference value :  3.15035e-05
 Reference value :  3.15047e-05
 Reference value :  3.15059e-05
 Reference value :  3.15074e-05
 Reference value :  3.15105e-05
 Reference value :  3.15119e-05
 Reference value :  3.15144e-05
 Reference value :  3.15164e-05
 Reference value :  3.15200e-05
 Reference value :  3.15248e-05
 Reference value :  3.15357e-05
 Reference value :  3.15397e-05
 Reference value :  3.15478e-05
 Reference value :  3.15576e-05
 Reference value :  3.15898e-05
 Reference value :  3.16477e-05
 Reference value :  3.17501e-05
 Reference value :  3.17502e-05
 Reference value :  3.17503e-05
 Reference value :  3.17505e-05
 Reference value :  3.17514e-05
 Reference value :  3.17524e-05
 Reference value :  3.17538e-05
 Reference value :  3.17550e-05
 Reference value :  3.17564e-05
 Reference value :  3.17590e-05
 Reference value :  3.17711e-05
 Reference value :  3.18465e-05
 Reference value :  3.20000e-05
 Reference value :  3.20001e-05
 Reference value :  3.20002e-05
 Reference value :  3.20009e-05
 Reference value :  3.20020e-05
 Reference value :  3.20029e-05
 Reference value :  3.20041e-05
 Reference value :  3.20056e-05
 Reference value :  3.20074e-05
 Reference value :  3.20093e-05
 Reference value :  3.20114e-05
 Reference value :  3.20187e-05
 Reference value :  3.21010e-05
 Reference value :  3.22501e-05
 Reference value :  3.22502e-05
 Reference value :  3.22503e-05
 Reference value :  3.22505e-05
 Reference value :  3.22515e-05
 Reference value :  3.22531e-05
 Reference value :  3.22544e-05
 Reference value :  3.22564e-05
 Reference value :  3.22590e-05
 Reference value :  3.22641e-05
 Reference value :  3.22948e-05
 Reference value :  3.24216e-05
 Reference value :  3.25000e-05
 Reference value :  3.25001e-05
 Reference value :  3.25002e-05
 Reference value :  3.25006e-05
 Reference value :  3.25015e-05
 Reference value :  3.25024e-05
 Reference value :  3.25035e-05
 Reference value :  3.25046e-05
 Reference value :  3.25058e-05
 Reference value :  3.25082e-05
 Reference value :  3.25107e-05
 Reference value :  3.25129e-05
 Reference value :  3.25146e-05
 Reference value :  3.25155e-05
 Reference value :  3.25187e-05
 Reference value :  3.25243e-05
 Reference value :  3.25433e-05
 Reference value :  3.26340e-05
 Reference value :  3.27501e-05
 Reference value :  3.27502e-05
 Reference value :  3.27503e-05
 Reference value :  3.27505e-05
 Reference value :  3.27514e-05
 Reference value :  3.27531e-05
 Reference value :  3.27543e-05
 Reference value :  3.27555e-05
 Reference value :  3.27572e-05
 Reference value :  3.27700e-05
 Reference value :  3.29233e-05
 Reference value :  3.30001e-05
 Reference value :  3.30001e-05
 Reference value :  3.30003e-05
 Reference value :  3.30009e-05
 Reference value :  3.30024e-05
 Reference value :  3.30035e-05
 Reference value :  3.30047e-05
 Reference value :  3.30056e-05
 Reference value :  3.30074e-05
 Reference value :  3.30093e-05
 Reference value :  3.30114e-05
 Reference value :  3.30254e-05
 Reference value :  3.32501e-05
 Reference value :  3.32502e-05
 Reference value :  3.32503e-05
 Reference value :  3.32510e-05
 Reference value :  3.32524e-05
 Reference value :  3.32544e-05
 Reference value :  3.32557e-05
 Reference value :  3.32564e-05
 Reference value :  3.32581e-05
 Reference value :  3.32619e-05
 Reference value :  3.32729e-05
 Reference value :  3.34210e-05
 Reference value :  3.35013e-05
 Reference value :  3.35052e-05
 Reference value :  3.35077e-05
 Reference value :  3.35090e-05
 Reference value :  3.35111e-05
 Reference value :  3.35155e-05
 Reference value :  3.35237e-05
 Reference value :  3.35508e-05
 Reference value :  3.35658e-05
 Reference value :  3.35955e-05
 Reference value :  3.36390e-05
 Reference value :  3.37501e-05
 Reference value :  3.37502e-05
 Reference value :  3.37502e-05
 Reference value :  3.37504e-05
 Reference value :  3.37510e-05
 Reference value :  3.37523e-05
 Reference value :  3.37538e-05
 Reference value :  3.37564e-05
 Reference value :  3.37613e-05
 Reference value :  3.37773e-05
 Reference value :  3.38412e-05
No. of Data Rows : 4874
ngspice-44 done
