
Note: Compatibility modes selected: hs a


Circuit: ** sch_path: /home/ece/cace/sar-adc-using-sky130-pdk/runs/run_2025-09-12_20-49-03/parameters/dnl/run_4/sar_output_dnl.sch

option SCALE: Scale is set to 1e-06 for instance and model parameters
option SCALE: Scale is set to 1e-06 for instance and model parameters
option SCALE: Scale is set to 1e-06 for instance and model parameters
option SCALE: Scale is set to 1e-06 for instance and model parameters
Doing analysis at TEMP = 27.000000 and TNOM = 27.000000

Using KLU as Direct Linear Solver
Operating point simulation skipped by 'uic',
  now using transient initial conditions.
 Reference value :  1.00000e-12
 Reference value :  1.19362e-12
 Reference value :  3.17800e-12
 Reference value :  1.38944e-11
 Reference value :  5.52685e-11
 Reference value :  1.04728e-10
 Reference value :  2.46583e-10
 Reference value :  6.52216e-10
 Reference value :  1.35592e-09
 Reference value :  3.29636e-09
 Reference value :  6.10295e-09
 Reference value :  8.31423e-09
 Reference value :  9.75026e-09
 Reference value :  1.14326e-08
 Reference value :  1.23924e-08
 Reference value :  1.32432e-08
 Reference value :  1.57852e-08
 Reference value :  2.99184e-08
 Reference value :  8.01633e-08
 Reference value :  2.03411e-07
 Reference value :  2.50130e-07
 Reference value :  2.50207e-07
 Reference value :  2.50307e-07
 Reference value :  2.50652e-07
 Reference value :  2.51636e-07
 Reference value :  2.53418e-07
 Reference value :  2.53967e-07
 Reference value :  2.55885e-07
 Reference value :  2.59100e-07
 Reference value :  2.80151e-07
 Reference value :  5.00000e-07
 Reference value :  5.00070e-07
 Reference value :  5.00124e-07
 Reference value :  5.00337e-07
 Reference value :  5.01283e-07
 Reference value :  5.02189e-07
 Reference value :  5.03256e-07
 Reference value :  5.05211e-07
 Reference value :  5.09047e-07
 Reference value :  5.11597e-07
 Reference value :  5.14751e-07
 Reference value :  5.18157e-07
 Reference value :  5.27922e-07
 Reference value :  5.64030e-07
 Reference value :  7.50110e-07
 Reference value :  7.50200e-07
 Reference value :  7.50255e-07
 Reference value :  7.50444e-07
 Reference value :  7.50948e-07
 Reference value :  7.51387e-07
 Reference value :  7.52367e-07
 Reference value :  7.53778e-07
 Reference value :  7.54422e-07
 Reference value :  7.55803e-07
 Reference value :  7.56662e-07
 Reference value :  7.61365e-07
 Reference value :  7.84868e-07
 Reference value :  9.19237e-07
 Reference value :  1.00003e-06
 Reference value :  1.00011e-06
 Reference value :  1.00022e-06
 Reference value :  1.00083e-06
 Reference value :  1.00176e-06
 Reference value :  1.00268e-06
 Reference value :  1.00391e-06
 Reference value :  1.00441e-06
 Reference value :  1.00557e-06
 Reference value :  1.00671e-06
 Reference value :  1.00843e-06
 Reference value :  1.01142e-06
 Reference value :  1.01278e-06
 Reference value :  1.01493e-06
 Reference value :  1.01708e-06
 Reference value :  1.02106e-06
 Reference value :  1.08858e-06
 Reference value :  1.25013e-06
 Reference value :  1.25032e-06
 Reference value :  1.25095e-06
 Reference value :  1.25185e-06
 Reference value :  1.25379e-06
 Reference value :  1.25506e-06
 Reference value :  1.25670e-06
 Reference value :  1.25926e-06
 Reference value :  1.27308e-06
 Reference value :  1.34626e-06
 Reference value :  1.50001e-06
 Reference value :  1.50007e-06
 Reference value :  1.50012e-06
 Reference value :  1.50034e-06
 Reference value :  1.50128e-06
 Reference value :  1.50219e-06
 Reference value :  1.50323e-06
 Reference value :  1.50443e-06
 Reference value :  1.50617e-06
 Reference value :  1.50819e-06
 Reference value :  1.51157e-06
 Reference value :  1.52870e-06
 Reference value :  1.64450e-06
 Reference value :  1.75013e-06
 Reference value :  1.75021e-06
 Reference value :  1.75032e-06
 Reference value :  1.75094e-06
 Reference value :  1.75185e-06
 Reference value :  1.75302e-06
 Reference value :  1.75441e-06
 Reference value :  1.75578e-06
 Reference value :  1.75760e-06
 Reference value :  1.76567e-06
 Reference value :  1.80721e-06
 Reference value :  2.00001e-06
 Reference value :  2.00010e-06
 Reference value :  2.00016e-06
 Reference value :  2.00034e-06
 Reference value :  2.00083e-06
 Reference value :  2.00128e-06
 Reference value :  2.00219e-06
 Reference value :  2.00329e-06
 Reference value :  2.00441e-06
 Reference value :  2.00557e-06
 Reference value :  2.00671e-06
 Reference value :  2.00999e-06
 Reference value :  2.01280e-06
 Reference value :  2.01389e-06
 Reference value :  2.01603e-06
 Reference value :  2.01707e-06
 Reference value :  2.02106e-06
 Reference value :  2.02833e-06
 Reference value :  2.03326e-06
 Reference value :  2.03932e-06
 Reference value :  2.04187e-06
 Reference value :  2.04850e-06
 Reference value :  2.05713e-06
 Reference value :  2.08672e-06
 Reference value :  2.18825e-06
 Reference value :  2.25013e-06
 Reference value :  2.25021e-06
 Reference value :  2.25032e-06
 Reference value :  2.25069e-06
 Reference value :  2.25138e-06
 Reference value :  2.25236e-06
 Reference value :  2.25373e-06
 Reference value :  2.25509e-06
 Reference value :  2.25787e-06
 Reference value :  2.26611e-06
 Reference value :  2.34242e-06
 Reference value :  2.50001e-06
 Reference value :  2.50010e-06
 Reference value :  2.50016e-06
 Reference value :  2.50050e-06
 Reference value :  2.50129e-06
 Reference value :  2.50218e-06
 Reference value :  2.50395e-06
 Reference value :  2.50553e-06
 Reference value :  2.50734e-06
 Reference value :  2.50903e-06
 Reference value :  2.51241e-06
 Reference value :  2.54752e-06
 Reference value :  2.75011e-06
 Reference value :  2.75020e-06
 Reference value :  2.75032e-06
 Reference value :  2.75094e-06
 Reference value :  2.75185e-06
 Reference value :  2.75376e-06
 Reference value :  2.75505e-06
 Reference value :  2.75671e-06
 Reference value :  2.75843e-06
 Reference value :  2.76215e-06
 Reference value :  2.77529e-06
 Reference value :  2.84984e-06
 Reference value :  3.00001e-06
 Reference value :  3.00010e-06
 Reference value :  3.00016e-06
 Reference value :  3.00050e-06
 Reference value :  3.00128e-06
 Reference value :  3.00219e-06
 Reference value :  3.00329e-06
 Reference value :  3.00441e-06
 Reference value :  3.00556e-06
 Reference value :  3.00756e-06
 Reference value :  3.01071e-06
 Reference value :  3.01285e-06
 Reference value :  3.01452e-06
 Reference value :  3.01646e-06
 Reference value :  3.01853e-06
 Reference value :  3.02308e-06
 Reference value :  3.05178e-06
 Reference value :  3.07046e-06
 Reference value :  3.07776e-06
 Reference value :  3.08079e-06
 Reference value :  3.08722e-06
 Reference value :  3.12559e-06
 Reference value :  3.15017e-06
 Reference value :  3.16817e-06
 Reference value :  3.18103e-06
 Reference value :  3.21365e-06
 Reference value :  3.25011e-06
 Reference value :  3.25020e-06
 Reference value :  3.25026e-06
 Reference value :  3.25069e-06
 Reference value :  3.25138e-06
 Reference value :  3.25236e-06
 Reference value :  3.25365e-06
 Reference value :  3.25498e-06
 Reference value :  3.25658e-06
 Reference value :  3.25908e-06
 Reference value :  3.27209e-06
 Reference value :  3.33701e-06
 Reference value :  3.50001e-06
 Reference value :  3.50010e-06
 Reference value :  3.50012e-06
 Reference value :  3.50034e-06
 Reference value :  3.50129e-06
 Reference value :  3.50218e-06
 Reference value :  3.50333e-06
 Reference value :  3.50476e-06
 Reference value :  3.50738e-06
 Reference value :  3.50904e-06
 Reference value :  3.51238e-06
 Reference value :  3.54596e-06
 Reference value :  3.75013e-06
 Reference value :  3.75026e-06
 Reference value :  3.75068e-06
 Reference value :  3.75138e-06
 Reference value :  3.75302e-06
 Reference value :  3.75439e-06
 Reference value :  3.75670e-06
 Reference value :  3.75933e-06
 Reference value :  3.76833e-06
 Reference value :  3.92734e-06
 Reference value :  4.00003e-06
 Reference value :  4.00012e-06
 Reference value :  4.00034e-06
 Reference value :  4.00128e-06
 Reference value :  4.00219e-06
 Reference value :  4.00330e-06
 Reference value :  4.00442e-06
 Reference value :  4.00557e-06
 Reference value :  4.00755e-06
 Reference value :  4.01068e-06
 Reference value :  4.01281e-06
 Reference value :  4.01450e-06
 Reference value :  4.01645e-06
 Reference value :  4.01974e-06
 Reference value :  4.03220e-06
 Reference value :  4.04381e-06
 Reference value :  4.05047e-06
 Reference value :  4.05795e-06
 Reference value :  4.12475e-06
 Reference value :  4.15904e-06
 Reference value :  4.19546e-06
 Reference value :  4.25013e-06
 Reference value :  4.25026e-06
 Reference value :  4.25138e-06
 Reference value :  4.25302e-06
 Reference value :  4.25510e-06
 Reference value :  4.25944e-06
 Reference value :  4.28499e-06
 Reference value :  4.50000e-06
 Reference value :  4.50007e-06
 Reference value :  4.50012e-06
 Reference value :  4.50034e-06
 Reference value :  4.50176e-06
 Reference value :  4.50332e-06
 Reference value :  4.50473e-06
 Reference value :  4.50734e-06
 Reference value :  4.50903e-06
 Reference value :  4.51119e-06
 Reference value :  4.54747e-06
 Reference value :  4.75013e-06
 Reference value :  4.75022e-06
 Reference value :  4.75044e-06
 Reference value :  4.75138e-06
 Reference value :  4.75302e-06
 Reference value :  4.75439e-06
 Reference value :  4.75670e-06
 Reference value :  4.75933e-06
 Reference value :  4.76831e-06
 Reference value :  4.84787e-06
 Reference value :  5.00001e-06
 Reference value :  5.00010e-06
 Reference value :  5.00016e-06
 Reference value :  5.00050e-06
 Reference value :  5.00128e-06
 Reference value :  5.00219e-06
 Reference value :  5.00329e-06
 Reference value :  5.00441e-06
 Reference value :  5.00556e-06
 Reference value :  5.00756e-06
 Reference value :  5.01071e-06
 Reference value :  5.01285e-06
 Reference value :  5.01449e-06
 Reference value :  5.01757e-06
 Reference value :  5.02389e-06
 Reference value :  5.03198e-06
 Reference value :  5.03771e-06
 Reference value :  5.08314e-06
 Reference value :  5.25010e-06
 Reference value :  5.25020e-06
 Reference value :  5.25044e-06
 Reference value :  5.25138e-06
 Reference value :  5.25374e-06
 Reference value :  5.25569e-06
 Reference value :  5.26148e-06
 Reference value :  5.27025e-06
 Reference value :  5.28618e-06
 Reference value :  5.34198e-06
 Reference value :  5.40249e-06
 Reference value :  5.50003e-06
 Reference value :  5.50012e-06
 Reference value :  5.50050e-06
 Reference value :  5.50176e-06
 Reference value :  5.50332e-06
 Reference value :  5.50473e-06
 Reference value :  5.50657e-06
 Reference value :  5.50817e-06
 Reference value :  5.51003e-06
 Reference value :  5.51956e-06
 Reference value :  5.65975e-06
 Reference value :  5.75013e-06
 Reference value :  5.75021e-06
 Reference value :  5.75044e-06
 Reference value :  5.75138e-06
 Reference value :  5.75302e-06
 Reference value :  5.75439e-06
 Reference value :  5.75670e-06
 Reference value :  5.75842e-06
 Reference value :  5.76484e-06
 Reference value :  5.80732e-06
 Reference value :  6.00001e-06
 Reference value :  6.00010e-06
 Reference value :  6.00016e-06
 Reference value :  6.00050e-06
 Reference value :  6.00128e-06
 Reference value :  6.00219e-06
 Reference value :  6.00329e-06
 Reference value :  6.00441e-06
 Reference value :  6.00556e-06
 Reference value :  6.00670e-06
 Reference value :  6.00973e-06
 Reference value :  6.01071e-06
 Reference value :  6.01285e-06
 Reference value :  6.01368e-06
 Reference value :  6.01651e-06
 Reference value :  6.01880e-06
 Reference value :  6.02156e-06
 Reference value :  6.02274e-06
 Reference value :  6.02524e-06
 Reference value :  6.03910e-06
 Reference value :  6.09862e-06
 Reference value :  6.25011e-06
 Reference value :  6.25020e-06
 Reference value :  6.25026e-06
 Reference value :  6.25069e-06
 Reference value :  6.25138e-06
 Reference value :  6.25302e-06
 Reference value :  6.25438e-06
 Reference value :  6.25665e-06
 Reference value :  6.26140e-06
 Reference value :  6.28403e-06
 Reference value :  6.40770e-06
 Reference value :  6.50003e-06
 Reference value :  6.50011e-06
 Reference value :  6.50016e-06
 Reference value :  6.50050e-06
 Reference value :  6.50128e-06
 Reference value :  6.50219e-06
 Reference value :  6.50323e-06
 Reference value :  6.50442e-06
 Reference value :  6.50616e-06
 Reference value :  6.50818e-06
 Reference value :  6.51158e-06
 Reference value :  6.52852e-06
 Reference value :  6.64259e-06
 Reference value :  6.75013e-06
 Reference value :  6.75021e-06
 Reference value :  6.75032e-06
 Reference value :  6.75094e-06
 Reference value :  6.75138e-06
 Reference value :  6.75302e-06
 Reference value :  6.75439e-06
 Reference value :  6.75576e-06
 Reference value :  6.75758e-06
 Reference value :  6.76547e-06
 Reference value :  6.83997e-06
 Reference value :  7.00003e-06
 Reference value :  7.00012e-06
 Reference value :  7.00034e-06
 Reference value :  7.00128e-06
 Reference value :  7.00219e-06
 Reference value :  7.00329e-06
 Reference value :  7.00440e-06
 Reference value :  7.00557e-06
 Reference value :  7.00671e-06
 Reference value :  7.01143e-06
 Reference value :  7.01388e-06
 Reference value :  7.01706e-06
 Reference value :  7.02273e-06
 Reference value :  7.04004e-06
 Reference value :  7.05155e-06
 Reference value :  7.06415e-06
 Reference value :  7.13947e-06
 Reference value :  7.25010e-06
 Reference value :  7.25017e-06
 Reference value :  7.25022e-06
 Reference value :  7.25045e-06
 Reference value :  7.25138e-06
 Reference value :  7.25302e-06
 Reference value :  7.25440e-06
 Reference value :  7.25578e-06
 Reference value :  7.25941e-06
 Reference value :  7.27292e-06
 Reference value :  7.29932e-06
 Reference value :  7.31351e-06
 Reference value :  7.35564e-06
 Reference value :  7.44757e-06
 Reference value :  7.50001e-06
 Reference value :  7.50010e-06
 Reference value :  7.50016e-06
 Reference value :  7.50050e-06
 Reference value :  7.50128e-06
 Reference value :  7.50219e-06
 Reference value :  7.50323e-06
 Reference value :  7.50443e-06
 Reference value :  7.50616e-06
 Reference value :  7.50820e-06
 Reference value :  7.51037e-06
 Reference value :  7.51288e-06
 Reference value :  7.52835e-06
 Reference value :  7.75010e-06
 Reference value :  7.75017e-06
 Reference value :  7.75026e-06
 Reference value :  7.75068e-06
 Reference value :  7.75138e-06
 Reference value :  7.75302e-06
 Reference value :  7.75439e-06
 Reference value :  7.75670e-06
 Reference value :  7.75923e-06
 Reference value :  7.77250e-06
 Reference value :  7.83947e-06
 Reference value :  8.00003e-06
 Reference value :  8.00011e-06
 Reference value :  8.00022e-06
 Reference value :  8.00083e-06
 Reference value :  8.00176e-06
 Reference value :  8.00219e-06
 Reference value :  8.00329e-06
 Reference value :  8.00440e-06
 Reference value :  8.00557e-06
 Reference value :  8.00610e-06
 Reference value :  8.00758e-06
 Reference value :  8.01027e-06
 Reference value :  8.02669e-06
 Reference value :  8.25010e-06
 Reference value :  8.25017e-06
 Reference value :  8.25022e-06
 Reference value :  8.25045e-06
 Reference value :  8.25139e-06
 Reference value :  8.25303e-06
 Reference value :  8.25475e-06
 Reference value :  8.25789e-06
 Reference value :  8.27124e-06
 Reference value :  8.38401e-06
 Reference value :  8.50000e-06
 Reference value :  8.50000e-06
 Reference value :  8.50000e-06
 Reference value :  8.50002e-06
 Reference value :  8.50010e-06
 Reference value :  8.50012e-06
 Reference value :  8.50027e-06
 Reference value :  8.50080e-06
 Reference value :  8.50170e-06
 Reference value :  8.50268e-06
 Reference value :  8.50475e-06
 Reference value :  8.50540e-06
 Reference value :  8.50682e-06
 Reference value :  8.51420e-06
 Reference value :  8.52697e-06
 Reference value :  8.53142e-06
 Reference value :  8.53883e-06
 Reference value :  8.54827e-06
 Reference value :  8.57115e-06
 Reference value :  8.62490e-06
 Reference value :  8.75010e-06
 Reference value :  8.75017e-06
 Reference value :  8.75022e-06
 Reference value :  8.75044e-06
 Reference value :  8.75094e-06
 Reference value :  8.75138e-06
 Reference value :  8.75236e-06
 Reference value :  8.75377e-06
 Reference value :  8.75439e-06
 Reference value :  8.75572e-06
 Reference value :  8.75766e-06
 Reference value :  8.76151e-06
 Reference value :  8.78397e-06
 Reference value :  8.90393e-06
 Reference value :  9.00003e-06
 Reference value :  9.00011e-06
 Reference value :  9.00022e-06
 Reference value :  9.00050e-06
 Reference value :  9.00128e-06
 Reference value :  9.00219e-06
 Reference value :  9.00323e-06
 Reference value :  9.00442e-06
 Reference value :  9.00617e-06
 Reference value :  9.00888e-06
 Reference value :  9.01136e-06
 Reference value :  9.01271e-06
 Reference value :  9.01562e-06
 Reference value :  9.01912e-06
 Reference value :  9.03193e-06
 Reference value :  9.08751e-06
 Reference value :  9.25011e-06
 Reference value :  9.25017e-06
 Reference value :  9.25022e-06
 Reference value :  9.25044e-06
 Reference value :  9.25138e-06
 Reference value :  9.25302e-06
 Reference value :  9.25440e-06
 Reference value :  9.25671e-06
 Reference value :  9.26549e-06
 Reference value :  9.30486e-06
 Reference value :  9.50003e-06
 Reference value :  9.50012e-06
 Reference value :  9.50050e-06
 Reference value :  9.50128e-06
 Reference value :  9.50268e-06
 Reference value :  9.50441e-06
 Reference value :  9.50557e-06
 Reference value :  9.50757e-06
 Reference value :  9.51277e-06
 Reference value :  9.51601e-06
 Reference value :  9.51812e-06
 Reference value :  9.52532e-06
 Reference value :  9.62450e-06
 Reference value :  9.75017e-06
 Reference value :  9.75044e-06
 Reference value :  9.75138e-06
 Reference value :  9.75302e-06
 Reference value :  9.75440e-06
 Reference value :  9.75670e-06
 Reference value :  9.76153e-06
 Reference value :  9.80499e-06
 Reference value :  1.00000e-05
 Reference value :  1.00001e-05
 Reference value :  1.00001e-05
 Reference value :  1.00003e-05
 Reference value :  1.00013e-05
 Reference value :  1.00022e-05
 Reference value :  1.00032e-05
 Reference value :  1.00044e-05
 Reference value :  1.00062e-05
 Reference value :  1.00082e-05
 Reference value :  1.00103e-05
 Reference value :  1.00154e-05
 Reference value :  1.00790e-05
 Reference value :  1.02501e-05
 Reference value :  1.02502e-05
 Reference value :  1.02503e-05
 Reference value :  1.02507e-05
 Reference value :  1.02514e-05
 Reference value :  1.02524e-05
 Reference value :  1.02538e-05
 Reference value :  1.02551e-05
 Reference value :  1.02576e-05
 Reference value :  1.02725e-05
 Reference value :  1.05000e-05
 Reference value :  1.05001e-05
 Reference value :  1.05002e-05
 Reference value :  1.05013e-05
 Reference value :  1.05022e-05
 Reference value :  1.05039e-05
 Reference value :  1.05044e-05
 Reference value :  1.05056e-05
 Reference value :  1.05067e-05
 Reference value :  1.05100e-05
 Reference value :  1.05128e-05
 Reference value :  1.05160e-05
 Reference value :  1.05182e-05
 Reference value :  1.05255e-05
 Reference value :  1.05360e-05
 Reference value :  1.05418e-05
 Reference value :  1.05570e-05
 Reference value :  1.06848e-05
 Reference value :  1.07502e-05
 Reference value :  1.07509e-05
 Reference value :  1.07530e-05
 Reference value :  1.07558e-05
 Reference value :  1.07729e-05
 Reference value :  1.10000e-05
 Reference value :  1.10001e-05
 Reference value :  1.10002e-05
 Reference value :  1.10008e-05
 Reference value :  1.10018e-05
 Reference value :  1.10026e-05
 Reference value :  1.10047e-05
 Reference value :  1.10073e-05
 Reference value :  1.10090e-05
 Reference value :  1.10196e-05
 Reference value :  1.12501e-05
 Reference value :  1.12502e-05
 Reference value :  1.12503e-05
 Reference value :  1.12509e-05
 Reference value :  1.12514e-05
 Reference value :  1.12524e-05
 Reference value :  1.12538e-05
 Reference value :  1.12550e-05
 Reference value :  1.12567e-05
 Reference value :  1.12584e-05
 Reference value :  1.12607e-05
 Reference value :  1.12649e-05
 Reference value :  1.12875e-05
 Reference value :  1.14259e-05
 Reference value :  1.15000e-05
 Reference value :  1.15001e-05
 Reference value :  1.15002e-05
 Reference value :  1.15008e-05
 Reference value :  1.15018e-05
 Reference value :  1.15027e-05
 Reference value :  1.15039e-05
 Reference value :  1.15050e-05
 Reference value :  1.15061e-05
 Reference value :  1.15084e-05
 Reference value :  1.15107e-05
 Reference value :  1.15128e-05
 Reference value :  1.15155e-05
 Reference value :  1.15175e-05
 Reference value :  1.15186e-05
 Reference value :  1.15214e-05
 Reference value :  1.15323e-05
 Reference value :  1.15532e-05
 Reference value :  1.15728e-05
 Reference value :  1.15794e-05
 Reference value :  1.15902e-05
 Reference value :  1.16037e-05
 Reference value :  1.16168e-05
 Reference value :  1.16368e-05
 Reference value :  1.16557e-05
 Reference value :  1.16636e-05
 Reference value :  1.16808e-05
 Reference value :  1.17240e-05
 Reference value :  1.17501e-05
 Reference value :  1.17502e-05
 Reference value :  1.17503e-05
 Reference value :  1.17507e-05
 Reference value :  1.17514e-05
 Reference value :  1.17524e-05
 Reference value :  1.17537e-05
 Reference value :  1.17551e-05
 Reference value :  1.17568e-05
 Reference value :  1.17594e-05
 Reference value :  1.17660e-05
 Reference value :  1.17847e-05
 Reference value :  1.19020e-05
 Reference value :  1.20000e-05
 Reference value :  1.20001e-05
 Reference value :  1.20003e-05
 Reference value :  1.20013e-05
 Reference value :  1.20022e-05
 Reference value :  1.20039e-05
 Reference value :  1.20047e-05
 Reference value :  1.20066e-05
 Reference value :  1.20073e-05
 Reference value :  1.20090e-05
 Reference value :  1.20112e-05
 Reference value :  1.20289e-05
 Reference value :  1.20851e-05
 Reference value :  1.22501e-05
 Reference value :  1.22502e-05
 Reference value :  1.22503e-05
 Reference value :  1.22507e-05
 Reference value :  1.22514e-05
 Reference value :  1.22530e-05
 Reference value :  1.22544e-05
 Reference value :  1.22567e-05
 Reference value :  1.22593e-05
 Reference value :  1.22683e-05
 Reference value :  1.23481e-05
 Reference value :  1.25000e-05
 Reference value :  1.25001e-05
 Reference value :  1.25008e-05
 Reference value :  1.25022e-05
 Reference value :  1.25039e-05
 Reference value :  1.25056e-05
 Reference value :  1.25076e-05
 Reference value :  1.25107e-05
 Reference value :  1.25128e-05
 Reference value :  1.25145e-05
 Reference value :  1.25165e-05
 Reference value :  1.25185e-05
 Reference value :  1.25231e-05
 Reference value :  1.25377e-05
 Reference value :  1.25468e-05
 Reference value :  1.25509e-05
 Reference value :  1.25646e-05
 Reference value :  1.26211e-05
 Reference value :  1.26438e-05
 Reference value :  1.26772e-05
 Reference value :  1.27112e-05
 Reference value :  1.27501e-05
 Reference value :  1.27502e-05
 Reference value :  1.27507e-05
 Reference value :  1.27518e-05
 Reference value :  1.27530e-05
 Reference value :  1.27543e-05
 Reference value :  1.27566e-05
 Reference value :  1.27651e-05
 Reference value :  1.28351e-05
 Reference value :  1.30000e-05
 Reference value :  1.30001e-05
 Reference value :  1.30002e-05
 Reference value :  1.30005e-05
 Reference value :  1.30013e-05
 Reference value :  1.30022e-05
 Reference value :  1.30040e-05
 Reference value :  1.30056e-05
 Reference value :  1.30074e-05
 Reference value :  1.30090e-05
 Reference value :  1.30112e-05
 Reference value :  1.30194e-05
 Reference value :  1.31523e-05
 Reference value :  1.32501e-05
 Reference value :  1.32502e-05
 Reference value :  1.32504e-05
 Reference value :  1.32514e-05
 Reference value :  1.32530e-05
 Reference value :  1.32544e-05
 Reference value :  1.32567e-05
 Reference value :  1.32584e-05
 Reference value :  1.32621e-05
 Reference value :  1.32875e-05
 Reference value :  1.34260e-05
 Reference value :  1.35000e-05
 Reference value :  1.35001e-05
 Reference value :  1.35005e-05
 Reference value :  1.35013e-05
 Reference value :  1.35022e-05
 Reference value :  1.35033e-05
 Reference value :  1.35044e-05
 Reference value :  1.35056e-05
 Reference value :  1.35061e-05
 Reference value :  1.35075e-05
 Reference value :  1.35097e-05
 Reference value :  1.35107e-05
 Reference value :  1.35128e-05
 Reference value :  1.35137e-05
 Reference value :  1.35156e-05
 Reference value :  1.35176e-05
 Reference value :  1.35200e-05
 Reference value :  1.35263e-05
 Reference value :  1.35292e-05
 Reference value :  1.35317e-05
 Reference value :  1.35337e-05
 Reference value :  1.35375e-05
 Reference value :  1.35463e-05
 Reference value :  1.35760e-05
 Reference value :  1.37393e-05
 Reference value :  1.37501e-05
 Reference value :  1.37502e-05
 Reference value :  1.37502e-05
 Reference value :  1.37504e-05
 Reference value :  1.37514e-05
 Reference value :  1.37530e-05
 Reference value :  1.37544e-05
 Reference value :  1.37567e-05
 Reference value :  1.37654e-05
 Reference value :  1.38259e-05
 Reference value :  1.38691e-05
 Reference value :  1.39408e-05
 Reference value :  1.40000e-05
 Reference value :  1.40001e-05
 Reference value :  1.40002e-05
 Reference value :  1.40005e-05
 Reference value :  1.40013e-05
 Reference value :  1.40022e-05
 Reference value :  1.40040e-05
 Reference value :  1.40056e-05
 Reference value :  1.40075e-05
 Reference value :  1.40092e-05
 Reference value :  1.40112e-05
 Reference value :  1.40192e-05
 Reference value :  1.40786e-05
 Reference value :  1.42501e-05
 Reference value :  1.42502e-05
 Reference value :  1.42503e-05
 Reference value :  1.42509e-05
 Reference value :  1.42518e-05
 Reference value :  1.42538e-05
 Reference value :  1.42550e-05
 Reference value :  1.42567e-05
 Reference value :  1.42584e-05
 Reference value :  1.42607e-05
 Reference value :  1.42683e-05
 Reference value :  1.43077e-05
 Reference value :  1.45000e-05
 Reference value :  1.45001e-05
 Reference value :  1.45002e-05
 Reference value :  1.45005e-05
 Reference value :  1.45013e-05
 Reference value :  1.45022e-05
 Reference value :  1.45033e-05
 Reference value :  1.45044e-05
 Reference value :  1.45056e-05
 Reference value :  1.45067e-05
 Reference value :  1.45097e-05
 Reference value :  1.45117e-05
 Reference value :  1.45136e-05
 Reference value :  1.45155e-05
 Reference value :  1.45175e-05
 Reference value :  1.45197e-05
 Reference value :  1.45216e-05
 Reference value :  1.45257e-05
 Reference value :  1.45394e-05
 Reference value :  1.45734e-05
 Reference value :  1.47501e-05
 Reference value :  1.47502e-05
 Reference value :  1.47502e-05
 Reference value :  1.47504e-05
 Reference value :  1.47514e-05
 Reference value :  1.47524e-05
 Reference value :  1.47538e-05
 Reference value :  1.47544e-05
 Reference value :  1.47557e-05
 Reference value :  1.47576e-05
 Reference value :  1.47654e-05
 Reference value :  1.48049e-05
 Reference value :  1.50000e-05
 Reference value :  1.50001e-05
 Reference value :  1.50001e-05
 Reference value :  1.50002e-05
 Reference value :  1.50003e-05
 Reference value :  1.50013e-05
 Reference value :  1.50022e-05
 Reference value :  1.50032e-05
 Reference value :  1.50044e-05
 Reference value :  1.50062e-05
 Reference value :  1.50082e-05
 Reference value :  1.50116e-05
 Reference value :  1.50288e-05
 Reference value :  1.52501e-05
 Reference value :  1.52502e-05
 Reference value :  1.52503e-05
 Reference value :  1.52507e-05
 Reference value :  1.52514e-05
 Reference value :  1.52530e-05
 Reference value :  1.52544e-05
 Reference value :  1.52567e-05
 Reference value :  1.52614e-05
 Reference value :  1.53048e-05
 Reference value :  1.55015e-05
 Reference value :  1.55045e-05
 Reference value :  1.55061e-05
 Reference value :  1.55092e-05
 Reference value :  1.55106e-05
 Reference value :  1.55120e-05
 Reference value :  1.55145e-05
 Reference value :  1.55167e-05
 Reference value :  1.55191e-05
 Reference value :  1.55243e-05
 Reference value :  1.55368e-05
 Reference value :  1.55556e-05
 Reference value :  1.55703e-05
 Reference value :  1.56124e-05
 Reference value :  1.56325e-05
 Reference value :  1.56761e-05
 Reference value :  1.57406e-05
 Reference value :  1.57501e-05
 Reference value :  1.57502e-05
 Reference value :  1.57504e-05
 Reference value :  1.57514e-05
 Reference value :  1.57530e-05
 Reference value :  1.57544e-05
 Reference value :  1.57567e-05
 Reference value :  1.57655e-05
 Reference value :  1.58049e-05
 Reference value :  1.60000e-05
 Reference value :  1.60001e-05
 Reference value :  1.60001e-05
 Reference value :  1.60003e-05
 Reference value :  1.60013e-05
 Reference value :  1.60022e-05
 Reference value :  1.60032e-05
 Reference value :  1.60044e-05
 Reference value :  1.60062e-05
 Reference value :  1.60082e-05
 Reference value :  1.60104e-05
 Reference value :  1.60129e-05
 Reference value :  1.60447e-05
 Reference value :  1.62501e-05
 Reference value :  1.62502e-05
 Reference value :  1.62503e-05
 Reference value :  1.62507e-05
 Reference value :  1.62514e-05
 Reference value :  1.62524e-05
 Reference value :  1.62538e-05
 Reference value :  1.62550e-05
 Reference value :  1.62567e-05
 Reference value :  1.62614e-05
 Reference value :  1.62838e-05
 Reference value :  1.65000e-05
 Reference value :  1.65001e-05
 Reference value :  1.65002e-05
 Reference value :  1.65008e-05
 Reference value :  1.65022e-05
 Reference value :  1.65039e-05
 Reference value :  1.65056e-05
 Reference value :  1.65076e-05
 Reference value :  1.65103e-05
 Reference value :  1.65179e-05
 Reference value :  1.65792e-05
 Reference value :  1.67501e-05
 Reference value :  1.67502e-05
 Reference value :  1.67503e-05
 Reference value :  1.67504e-05
 Reference value :  1.67510e-05
 Reference value :  1.67519e-05
 Reference value :  1.67530e-05
 Reference value :  1.67548e-05
 Reference value :  1.67579e-05
 Reference value :  1.67712e-05
 Reference value :  1.69969e-05
 Reference value :  1.70000e-05
 Reference value :  1.70000e-05
 Reference value :  1.70001e-05
 Reference value :  1.70001e-05
 Reference value :  1.70004e-05
 Reference value :  1.70017e-05
 Reference value :  1.70027e-05
 Reference value :  1.70048e-05
 Reference value :  1.70061e-05
 Reference value :  1.70092e-05
 Reference value :  1.70208e-05
 Reference value :  1.70270e-05
 Reference value :  1.70314e-05
 Reference value :  1.70418e-05
 Reference value :  1.70630e-05
 Reference value :  1.71637e-05
 Reference value :  1.72502e-05
 Reference value :  1.72504e-05
 Reference value :  1.72514e-05
 Reference value :  1.72530e-05
 Reference value :  1.72551e-05
 Reference value :  1.72616e-05
 Reference value :  1.74026e-05
 Reference value :  1.75001e-05
 Reference value :  1.75002e-05
 Reference value :  1.75013e-05
 Reference value :  1.75027e-05
 Reference value :  1.75044e-05
 Reference value :  1.75072e-05
 Reference value :  1.75101e-05
 Reference value :  1.75127e-05
 Reference value :  1.75156e-05
 Reference value :  1.75192e-05
 Reference value :  1.75559e-05
 Reference value :  1.77501e-05
 Reference value :  1.77502e-05
 Reference value :  1.77507e-05
 Reference value :  1.77514e-05
 Reference value :  1.77530e-05
 Reference value :  1.77544e-05
 Reference value :  1.77567e-05
 Reference value :  1.77614e-05
 Reference value :  1.77838e-05
 Reference value :  1.79041e-05
 Reference value :  1.80017e-05
 Reference value :  1.80051e-05
 Reference value :  1.80069e-05
 Reference value :  1.80106e-05
 Reference value :  1.80123e-05
 Reference value :  1.80153e-05
 Reference value :  1.80167e-05
 Reference value :  1.80180e-05
 Reference value :  1.80209e-05
 Reference value :  1.80302e-05
 Reference value :  1.80703e-05
 Reference value :  1.81875e-05
 Reference value :  1.82501e-05
 Reference value :  1.82502e-05
 Reference value :  1.82502e-05
 Reference value :  1.82503e-05
 Reference value :  1.82507e-05
 Reference value :  1.82514e-05
 Reference value :  1.82524e-05
 Reference value :  1.82537e-05
 Reference value :  1.82543e-05
 Reference value :  1.82556e-05
 Reference value :  1.82590e-05
 Reference value :  1.82829e-05
 Reference value :  1.83969e-05
 Reference value :  1.85000e-05
 Reference value :  1.85001e-05
 Reference value :  1.85002e-05
 Reference value :  1.85008e-05
 Reference value :  1.85013e-05
 Reference value :  1.85022e-05
 Reference value :  1.85032e-05
 Reference value :  1.85044e-05
 Reference value :  1.85062e-05
 Reference value :  1.85082e-05
 Reference value :  1.85092e-05
 Reference value :  1.85115e-05
 Reference value :  1.85205e-05
 Reference value :  1.85801e-05
 Reference value :  1.87501e-05
 Reference value :  1.87502e-05
 Reference value :  1.87503e-05
 Reference value :  1.87504e-05
 Reference value :  1.87509e-05
 Reference value :  1.87514e-05
 Reference value :  1.87524e-05
 Reference value :  1.87538e-05
 Reference value :  1.87544e-05
 Reference value :  1.87558e-05
 Reference value :  1.87576e-05
 Reference value :  1.87614e-05
 Reference value :  1.87837e-05
 Reference value :  1.88393e-05
 Reference value :  1.90000e-05
 Reference value :  1.90001e-05
 Reference value :  1.90001e-05
 Reference value :  1.90002e-05
 Reference value :  1.90008e-05
 Reference value :  1.90013e-05
 Reference value :  1.90022e-05
 Reference value :  1.90033e-05
 Reference value :  1.90044e-05
 Reference value :  1.90056e-05
 Reference value :  1.90061e-05
 Reference value :  1.90076e-05
 Reference value :  1.90100e-05
 Reference value :  1.90128e-05
 Reference value :  1.90139e-05
 Reference value :  1.90160e-05
 Reference value :  1.90171e-05
 Reference value :  1.90194e-05
 Reference value :  1.90228e-05
 Reference value :  1.90256e-05
 Reference value :  1.90310e-05
 Reference value :  1.90363e-05
 Reference value :  1.90393e-05
 Reference value :  1.90439e-05
 Reference value :  1.90503e-05
 Reference value :  1.90657e-05
 Reference value :  1.90976e-05
 Reference value :  1.92353e-05
 Reference value :  1.92501e-05
 Reference value :  1.92502e-05
 Reference value :  1.92503e-05
 Reference value :  1.92509e-05
 Reference value :  1.92514e-05
 Reference value :  1.92524e-05
 Reference value :  1.92537e-05
 Reference value :  1.92557e-05
 Reference value :  1.92618e-05
 Reference value :  1.93043e-05
 Reference value :  1.95000e-05
 Reference value :  1.95018e-05
 Reference value :  1.95055e-05
 Reference value :  1.95074e-05
 Reference value :  1.95107e-05
 Reference value :  1.95163e-05
 Reference value :  1.95599e-05
 Reference value :  1.97501e-05
 Reference value :  1.97502e-05
 Reference value :  1.97507e-05
 Reference value :  1.97519e-05
 Reference value :  1.97537e-05
 Reference value :  1.97555e-05
 Reference value :  1.97580e-05
 Reference value :  1.97619e-05
 Reference value :  1.97823e-05
 Reference value :  1.99569e-05
 Reference value :  2.00000e-05
 Reference value :  2.00001e-05
 Reference value :  2.00002e-05
 Reference value :  2.00008e-05
 Reference value :  2.00018e-05
 Reference value :  2.00022e-05
 Reference value :  2.00033e-05
 Reference value :  2.00044e-05
 Reference value :  2.00056e-05
 Reference value :  2.00061e-05
 Reference value :  2.00076e-05
 Reference value :  2.00097e-05
 Reference value :  2.00107e-05
 Reference value :  2.00118e-05
 Reference value :  2.00137e-05
 Reference value :  2.00155e-05
 Reference value :  2.00175e-05
 Reference value :  2.00185e-05
 Reference value :  2.00213e-05
 Reference value :  2.00323e-05
 Reference value :  2.00530e-05
 Reference value :  2.00721e-05
 Reference value :  2.00786e-05
 Reference value :  2.00892e-05
 Reference value :  2.00982e-05
 Reference value :  2.01109e-05
 Reference value :  2.01260e-05
 Reference value :  2.01341e-05
 Reference value :  2.01471e-05
 Reference value :  2.01511e-05
 Reference value :  2.01610e-05
 Reference value :  2.01816e-05
 Reference value :  2.02501e-05
 Reference value :  2.02502e-05
 Reference value :  2.02504e-05
 Reference value :  2.02514e-05
 Reference value :  2.02530e-05
 Reference value :  2.02551e-05
 Reference value :  2.02579e-05
 Reference value :  2.02729e-05
 Reference value :  2.04016e-05
 Reference value :  2.05018e-05
 Reference value :  2.05055e-05
 Reference value :  2.05074e-05
 Reference value :  2.05107e-05
 Reference value :  2.05142e-05
 Reference value :  2.05308e-05
 Reference value :  2.06509e-05
 Reference value :  2.07501e-05
 Reference value :  2.07502e-05
 Reference value :  2.07503e-05
 Reference value :  2.07509e-05
 Reference value :  2.07519e-05
 Reference value :  2.07530e-05
 Reference value :  2.07542e-05
 Reference value :  2.07562e-05
 Reference value :  2.07592e-05
 Reference value :  2.07637e-05
 Reference value :  2.07992e-05
 Reference value :  2.10000e-05
 Reference value :  2.10001e-05
 Reference value :  2.10003e-05
 Reference value :  2.10013e-05
 Reference value :  2.10022e-05
 Reference value :  2.10033e-05
 Reference value :  2.10044e-05
 Reference value :  2.10056e-05
 Reference value :  2.10067e-05
 Reference value :  2.10084e-05
 Reference value :  2.10107e-05
 Reference value :  2.10129e-05
 Reference value :  2.10145e-05
 Reference value :  2.10165e-05
 Reference value :  2.10196e-05
 Reference value :  2.10267e-05
 Reference value :  2.10375e-05
 Reference value :  2.10464e-05
 Reference value :  2.10502e-05
 Reference value :  2.10650e-05
 Reference value :  2.11313e-05
 Reference value :  2.11696e-05
 Reference value :  2.11929e-05
 Reference value :  2.12501e-05
 Reference value :  2.12502e-05
 Reference value :  2.12507e-05
 Reference value :  2.12518e-05
 Reference value :  2.12537e-05
 Reference value :  2.12568e-05
 Reference value :  2.12661e-05
 Reference value :  2.15000e-05
 Reference value :  2.15001e-05
 Reference value :  2.15001e-05
 Reference value :  2.15003e-05
 Reference value :  2.15008e-05
 Reference value :  2.15018e-05
 Reference value :  2.15022e-05
 Reference value :  2.15033e-05
 Reference value :  2.15039e-05
 Reference value :  2.15055e-05
 Reference value :  2.15073e-05
 Reference value :  2.15090e-05
 Reference value :  2.15124e-05
 Reference value :  2.15289e-05
 Reference value :  2.17501e-05
 Reference value :  2.17502e-05
 Reference value :  2.17502e-05
 Reference value :  2.17507e-05
 Reference value :  2.17514e-05
 Reference value :  2.17530e-05
 Reference value :  2.17544e-05
 Reference value :  2.17567e-05
 Reference value :  2.17584e-05
 Reference value :  2.17621e-05
 Reference value :  2.17873e-05
 Reference value :  2.19239e-05
 Reference value :  2.20013e-05
 Reference value :  2.20038e-05
 Reference value :  2.20051e-05
 Reference value :  2.20073e-05
 Reference value :  2.20103e-05
 Reference value :  2.20122e-05
 Reference value :  2.20140e-05
 Reference value :  2.20157e-05
 Reference value :  2.20176e-05
 Reference value :  2.20215e-05
 Reference value :  2.20286e-05
 Reference value :  2.20310e-05
 Reference value :  2.20345e-05
 Reference value :  2.20419e-05
 Reference value :  2.20759e-05
 Reference value :  2.21672e-05
 Reference value :  2.22501e-05
 Reference value :  2.22502e-05
 Reference value :  2.22503e-05
 Reference value :  2.22507e-05
 Reference value :  2.22514e-05
 Reference value :  2.22524e-05
 Reference value :  2.22544e-05
 Reference value :  2.22566e-05
 Reference value :  2.22613e-05
 Reference value :  2.22835e-05
 Reference value :  2.23963e-05
 Reference value :  2.25000e-05
 Reference value :  2.25000e-05
 Reference value :  2.25001e-05
 Reference value :  2.25002e-05
 Reference value :  2.25008e-05
 Reference value :  2.25018e-05
 Reference value :  2.25027e-05
 Reference value :  2.25040e-05
 Reference value :  2.25057e-05
 Reference value :  2.25075e-05
 Reference value :  2.25092e-05
 Reference value :  2.25112e-05
 Reference value :  2.25192e-05
 Reference value :  2.25760e-05
 Reference value :  2.27037e-05
 Reference value :  2.27501e-05
 Reference value :  2.27502e-05
 Reference value :  2.27503e-05
 Reference value :  2.27507e-05
 Reference value :  2.27514e-05
 Reference value :  2.27530e-05
 Reference value :  2.27544e-05
 Reference value :  2.27558e-05
 Reference value :  2.27576e-05
 Reference value :  2.27593e-05
 Reference value :  2.27649e-05
 Reference value :  2.27879e-05
 Reference value :  2.29291e-05
 Reference value :  2.30012e-05
 Reference value :  2.30036e-05
 Reference value :  2.30048e-05
 Reference value :  2.30070e-05
 Reference value :  2.30090e-05
 Reference value :  2.30113e-05
 Reference value :  2.30137e-05
 Reference value :  2.30146e-05
 Reference value :  2.30164e-05
 Reference value :  2.30183e-05
 Reference value :  2.30203e-05
 Reference value :  2.30225e-05
 Reference value :  2.30284e-05
 Reference value :  2.30447e-05
 Reference value :  2.30660e-05
 Reference value :  2.32481e-05
 Reference value :  2.32501e-05
 Reference value :  2.32502e-05
 Reference value :  2.32502e-05
 Reference value :  2.32503e-05
 Reference value :  2.32507e-05
 Reference value :  2.32514e-05
 Reference value :  2.32524e-05
 Reference value :  2.32538e-05
 Reference value :  2.32544e-05
 Reference value :  2.32557e-05
 Reference value :  2.32591e-05
 Reference value :  2.32834e-05
 Reference value :  2.35000e-05
 Reference value :  2.35001e-05
 Reference value :  2.35002e-05
 Reference value :  2.35013e-05
 Reference value :  2.35022e-05
 Reference value :  2.35032e-05
 Reference value :  2.35044e-05
 Reference value :  2.35062e-05
 Reference value :  2.35093e-05
 Reference value :  2.35129e-05
 Reference value :  2.36413e-05
 Reference value :  2.37502e-05
 Reference value :  2.37503e-05
 Reference value :  2.37507e-05
 Reference value :  2.37514e-05
 Reference value :  2.37524e-05
 Reference value :  2.37538e-05
 Reference value :  2.37551e-05
 Reference value :  2.37567e-05
 Reference value :  2.37614e-05
 Reference value :  2.37838e-05
 Reference value :  2.39051e-05
 Reference value :  2.40000e-05
 Reference value :  2.40001e-05
 Reference value :  2.40002e-05
 Reference value :  2.40008e-05
 Reference value :  2.40022e-05
 Reference value :  2.40039e-05
 Reference value :  2.40050e-05
 Reference value :  2.40061e-05
 Reference value :  2.40084e-05
 Reference value :  2.40114e-05
 Reference value :  2.40128e-05
 Reference value :  2.40139e-05
 Reference value :  2.40160e-05
 Reference value :  2.40181e-05
 Reference value :  2.40225e-05
 Reference value :  2.40391e-05
 Reference value :  2.40959e-05
 Reference value :  2.41440e-05
 Reference value :  2.42501e-05
 Reference value :  2.42502e-05
 Reference value :  2.42503e-05
 Reference value :  2.42509e-05
 Reference value :  2.42518e-05
 Reference value :  2.42538e-05
 Reference value :  2.42557e-05
 Reference value :  2.42614e-05
 Reference value :  2.43402e-05
 Reference value :  2.45001e-05
 Reference value :  2.45002e-05
 Reference value :  2.45013e-05
 Reference value :  2.45022e-05
 Reference value :  2.45038e-05
 Reference value :  2.45062e-05
 Reference value :  2.45082e-05
 Reference value :  2.45103e-05
 Reference value :  2.45154e-05
 Reference value :  2.45790e-05
 Reference value :  2.47501e-05
 Reference value :  2.47502e-05
 Reference value :  2.47504e-05
 Reference value :  2.47514e-05
 Reference value :  2.47538e-05
 Reference value :  2.47558e-05
 Reference value :  2.47614e-05
 Reference value :  2.48395e-05
 Reference value :  2.50001e-05
 Reference value :  2.50001e-05
 Reference value :  2.50003e-05
 Reference value :  2.50013e-05
 Reference value :  2.50022e-05
 Reference value :  2.50039e-05
 Reference value :  2.50050e-05
 Reference value :  2.50061e-05
 Reference value :  2.50076e-05
 Reference value :  2.50103e-05
 Reference value :  2.50179e-05
 Reference value :  2.51493e-05
 Reference value :  2.52502e-05
 Reference value :  2.52503e-05
 Reference value :  2.52507e-05
 Reference value :  2.52514e-05
 Reference value :  2.52530e-05
 Reference value :  2.52548e-05
 Reference value :  2.52579e-05
 Reference value :  2.52649e-05
 Reference value :  2.53256e-05
 Reference value :  2.55000e-05
 Reference value :  2.55000e-05
 Reference value :  2.55000e-05
 Reference value :  2.55001e-05
 Reference value :  2.55001e-05
 Reference value :  2.55004e-05
 Reference value :  2.55017e-05
 Reference value :  2.55027e-05
 Reference value :  2.55047e-05
 Reference value :  2.55054e-05
 Reference value :  2.55068e-05
 Reference value :  2.55109e-05
 Reference value :  2.55270e-05
 Reference value :  2.55314e-05
 Reference value :  2.55388e-05
 Reference value :  2.55483e-05
 Reference value :  2.55631e-05
 Reference value :  2.55995e-05
 Reference value :  2.56641e-05
 Reference value :  2.57501e-05
 Reference value :  2.57502e-05
 Reference value :  2.57502e-05
 Reference value :  2.57504e-05
 Reference value :  2.57514e-05
 Reference value :  2.57530e-05
 Reference value :  2.57544e-05
 Reference value :  2.57557e-05
 Reference value :  2.57576e-05
 Reference value :  2.57614e-05
 Reference value :  2.57839e-05
 Reference value :  2.59049e-05
 Reference value :  2.60000e-05
 Reference value :  2.60001e-05
 Reference value :  2.60001e-05
 Reference value :  2.60003e-05
 Reference value :  2.60008e-05
 Reference value :  2.60013e-05
 Reference value :  2.60022e-05
 Reference value :  2.60032e-05
 Reference value :  2.60044e-05
 Reference value :  2.60062e-05
 Reference value :  2.60089e-05
 Reference value :  2.60114e-05
 Reference value :  2.60127e-05
 Reference value :  2.60156e-05
 Reference value :  2.60191e-05
 Reference value :  2.60319e-05
 Reference value :  2.61510e-05
 Reference value :  2.62501e-05
 Reference value :  2.62502e-05
 Reference value :  2.62503e-05
 Reference value :  2.62509e-05
 Reference value :  2.62518e-05
 Reference value :  2.62538e-05
 Reference value :  2.62551e-05
 Reference value :  2.62576e-05
 Reference value :  2.62655e-05
 Reference value :  2.63395e-05
 Reference value :  2.65017e-05
 Reference value :  2.65068e-05
 Reference value :  2.65106e-05
 Reference value :  2.65122e-05
 Reference value :  2.65153e-05
 Reference value :  2.65180e-05
 Reference value :  2.65231e-05
 Reference value :  2.65369e-05
 Reference value :  2.66115e-05
 Reference value :  2.67501e-05
 Reference value :  2.67502e-05
 Reference value :  2.67502e-05
 Reference value :  2.67503e-05
 Reference value :  2.67507e-05
 Reference value :  2.67514e-05
 Reference value :  2.67524e-05
 Reference value :  2.67537e-05
 Reference value :  2.67543e-05
 Reference value :  2.67556e-05
 Reference value :  2.67612e-05
 Reference value :  2.67829e-05
 Reference value :  2.68380e-05
 Reference value :  2.70000e-05
 Reference value :  2.70000e-05
 Reference value :  2.70001e-05
 Reference value :  2.70001e-05
 Reference value :  2.70002e-05
 Reference value :  2.70008e-05
 Reference value :  2.70018e-05
 Reference value :  2.70027e-05
 Reference value :  2.70038e-05
 Reference value :  2.70051e-05
 Reference value :  2.70072e-05
 Reference value :  2.70092e-05
 Reference value :  2.70115e-05
 Reference value :  2.70205e-05
 Reference value :  2.70793e-05
 Reference value :  2.72501e-05
 Reference value :  2.72502e-05
 Reference value :  2.72503e-05
 Reference value :  2.72507e-05
 Reference value :  2.72514e-05
 Reference value :  2.72524e-05
 Reference value :  2.72538e-05
 Reference value :  2.72551e-05
 Reference value :  2.72576e-05
 Reference value :  2.72725e-05
 Reference value :  2.74050e-05
 Reference value :  2.75001e-05
 Reference value :  2.75001e-05
 Reference value :  2.75003e-05
 Reference value :  2.75013e-05
 Reference value :  2.75022e-05
 Reference value :  2.75033e-05
 Reference value :  2.75044e-05
 Reference value :  2.75056e-05
 Reference value :  2.75061e-05
 Reference value :  2.75076e-05
 Reference value :  2.75100e-05
 Reference value :  2.75128e-05
 Reference value :  2.75139e-05
 Reference value :  2.75160e-05
 Reference value :  2.75171e-05
 Reference value :  2.75211e-05
 Reference value :  2.75256e-05
 Reference value :  2.75312e-05
 Reference value :  2.75394e-05
 Reference value :  2.75446e-05
 Reference value :  2.75575e-05
 Reference value :  2.75877e-05
 Reference value :  2.77025e-05
 Reference value :  2.77501e-05
 Reference value :  2.77502e-05
 Reference value :  2.77503e-05
 Reference value :  2.77507e-05
 Reference value :  2.77514e-05
 Reference value :  2.77524e-05
 Reference value :  2.77537e-05
 Reference value :  2.77558e-05
 Reference value :  2.77579e-05
 Reference value :  2.77660e-05
 Reference value :  2.78046e-05
 Reference value :  2.80018e-05
 Reference value :  2.80074e-05
 Reference value :  2.80107e-05
 Reference value :  2.80142e-05
 Reference value :  2.80308e-05
 Reference value :  2.81507e-05
 Reference value :  2.82501e-05
 Reference value :  2.82502e-05
 Reference value :  2.82503e-05
 Reference value :  2.82509e-05
 Reference value :  2.82519e-05
 Reference value :  2.82530e-05
 Reference value :  2.82542e-05
 Reference value :  2.82555e-05
 Reference value :  2.82571e-05
 Reference value :  2.82592e-05
 Reference value :  2.82619e-05
 Reference value :  2.82671e-05
 Reference value :  2.82823e-05
 Reference value :  2.84581e-05
 Reference value :  2.85001e-05
 Reference value :  2.85002e-05
 Reference value :  2.85008e-05
 Reference value :  2.85018e-05
 Reference value :  2.85027e-05
 Reference value :  2.85039e-05
 Reference value :  2.85050e-05
 Reference value :  2.85056e-05
 Reference value :  2.85067e-05
 Reference value :  2.85097e-05
 Reference value :  2.85118e-05
 Reference value :  2.85137e-05
 Reference value :  2.85155e-05
 Reference value :  2.85185e-05
 Reference value :  2.85231e-05
 Reference value :  2.85414e-05
 Reference value :  2.85635e-05
 Reference value :  2.85715e-05
 Reference value :  2.85779e-05
 Reference value :  2.85883e-05
 Reference value :  2.86053e-05
 Reference value :  2.86314e-05
 Reference value :  2.86426e-05
 Reference value :  2.86557e-05
 Reference value :  2.86779e-05
 Reference value :  2.87501e-05
 Reference value :  2.87502e-05
 Reference value :  2.87504e-05
 Reference value :  2.87514e-05
 Reference value :  2.87537e-05
 Reference value :  2.87558e-05
 Reference value :  2.87619e-05
 Reference value :  2.89019e-05
 Reference value :  2.90018e-05
 Reference value :  2.90074e-05
 Reference value :  2.90107e-05
 Reference value :  2.90142e-05
 Reference value :  2.90420e-05
 Reference value :  2.92501e-05
 Reference value :  2.92502e-05
 Reference value :  2.92507e-05
 Reference value :  2.92519e-05
 Reference value :  2.92536e-05
 Reference value :  2.92555e-05
 Reference value :  2.92571e-05
 Reference value :  2.92602e-05
 Reference value :  2.92731e-05
 Reference value :  2.93737e-05
 Reference value :  2.95001e-05
 Reference value :  2.95002e-05
 Reference value :  2.95008e-05
 Reference value :  2.95018e-05
 Reference value :  2.95027e-05
 Reference value :  2.95044e-05
 Reference value :  2.95056e-05
 Reference value :  2.95076e-05
 Reference value :  2.95107e-05
 Reference value :  2.95137e-05
 Reference value :  2.95164e-05
 Reference value :  2.95196e-05
 Reference value :  2.95319e-05
 Reference value :  2.95370e-05
 Reference value :  2.95457e-05
 Reference value :  2.95494e-05
 Reference value :  2.95634e-05
 Reference value :  2.96011e-05
 Reference value :  2.96493e-05
 Reference value :  2.96850e-05
 Reference value :  2.97122e-05
 Reference value :  2.97501e-05
 Reference value :  2.97502e-05
 Reference value :  2.97503e-05
 Reference value :  2.97509e-05
 Reference value :  2.97518e-05
 Reference value :  2.97536e-05
 Reference value :  2.97550e-05
 Reference value :  2.97576e-05
 Reference value :  2.97719e-05
 Reference value :  2.98914e-05
 Reference value :  3.00000e-05
 Reference value :  3.00001e-05
 Reference value :  3.00003e-05
 Reference value :  3.00013e-05
 Reference value :  3.00022e-05
 Reference value :  3.00040e-05
 Reference value :  3.00048e-05
 Reference value :  3.00066e-05
 Reference value :  3.00074e-05
 Reference value :  3.00090e-05
 Reference value :  3.00112e-05
 Reference value :  3.00283e-05
 Reference value :  3.01525e-05
 Reference value :  3.02501e-05
 Reference value :  3.02502e-05
 Reference value :  3.02503e-05
 Reference value :  3.02507e-05
 Reference value :  3.02514e-05
 Reference value :  3.02524e-05
 Reference value :  3.02538e-05
 Reference value :  3.02550e-05
 Reference value :  3.02567e-05
 Reference value :  3.02584e-05
 Reference value :  3.02607e-05
 Reference value :  3.02649e-05
 Reference value :  3.02875e-05
 Reference value :  3.04256e-05
 Reference value :  3.05012e-05
 Reference value :  3.05050e-05
 Reference value :  3.05072e-05
 Reference value :  3.05102e-05
 Reference value :  3.05122e-05
 Reference value :  3.05141e-05
 Reference value :  3.05169e-05
 Reference value :  3.05203e-05
 Reference value :  3.05238e-05
 Reference value :  3.05281e-05
 Reference value :  3.05304e-05
 Reference value :  3.05338e-05
 Reference value :  3.05372e-05
 Reference value :  3.05593e-05
 Reference value :  3.06593e-05
 Reference value :  3.07501e-05
 Reference value :  3.07502e-05
 Reference value :  3.07503e-05
 Reference value :  3.07507e-05
 Reference value :  3.07514e-05
 Reference value :  3.07524e-05
 Reference value :  3.07544e-05
 Reference value :  3.07566e-05
 Reference value :  3.07613e-05
 Reference value :  3.08385e-05
 Reference value :  3.10000e-05
 Reference value :  3.10001e-05
 Reference value :  3.10002e-05
 Reference value :  3.10008e-05
 Reference value :  3.10018e-05
 Reference value :  3.10027e-05
 Reference value :  3.10038e-05
 Reference value :  3.10051e-05
 Reference value :  3.10082e-05
 Reference value :  3.10116e-05
 Reference value :  3.10450e-05
 Reference value :  3.12501e-05
 Reference value :  3.12502e-05
 Reference value :  3.12507e-05
 Reference value :  3.12518e-05
 Reference value :  3.12538e-05
 Reference value :  3.12551e-05
 Reference value :  3.12576e-05
 Reference value :  3.12725e-05
 Reference value :  3.14050e-05
 Reference value :  3.15000e-05
 Reference value :  3.15001e-05
 Reference value :  3.15003e-05
 Reference value :  3.15013e-05
 Reference value :  3.15022e-05
 Reference value :  3.15033e-05
 Reference value :  3.15044e-05
 Reference value :  3.15056e-05
 Reference value :  3.15067e-05
 Reference value :  3.15100e-05
 Reference value :  3.15128e-05
 Reference value :  3.15149e-05
 Reference value :  3.15170e-05
 Reference value :  3.15193e-05
 Reference value :  3.15253e-05
 Reference value :  3.15292e-05
 Reference value :  3.15373e-05
 Reference value :  3.15466e-05
 Reference value :  3.15588e-05
 Reference value :  3.15832e-05
 Reference value :  3.16707e-05
 Reference value :  3.17501e-05
 Reference value :  3.17502e-05
 Reference value :  3.17503e-05
 Reference value :  3.17504e-05
 Reference value :  3.17509e-05
 Reference value :  3.17514e-05
 Reference value :  3.17524e-05
 Reference value :  3.17537e-05
 Reference value :  3.17551e-05
 Reference value :  3.17568e-05
 Reference value :  3.17594e-05
 Reference value :  3.17660e-05
 Reference value :  3.18046e-05
 Reference value :  3.20000e-05
 Reference value :  3.20000e-05
 Reference value :  3.20001e-05
 Reference value :  3.20002e-05
 Reference value :  3.20005e-05
 Reference value :  3.20013e-05
 Reference value :  3.20022e-05
 Reference value :  3.20039e-05
 Reference value :  3.20056e-05
 Reference value :  3.20074e-05
 Reference value :  3.20090e-05
 Reference value :  3.20148e-05
 Reference value :  3.21552e-05
 Reference value :  3.22502e-05
 Reference value :  3.22507e-05
 Reference value :  3.22518e-05
 Reference value :  3.22538e-05
 Reference value :  3.22550e-05
 Reference value :  3.22576e-05
 Reference value :  3.22621e-05
 Reference value :  3.23073e-05
 Reference value :  3.25000e-05
 Reference value :  3.25001e-05
 Reference value :  3.25005e-05
 Reference value :  3.25013e-05
 Reference value :  3.25022e-05
 Reference value :  3.25039e-05
 Reference value :  3.25050e-05
 Reference value :  3.25061e-05
 Reference value :  3.25084e-05
 Reference value :  3.25107e-05
 Reference value :  3.25137e-05
 Reference value :  3.25165e-05
 Reference value :  3.25213e-05
 Reference value :  3.25410e-05
 Reference value :  3.27330e-05
 Reference value :  3.27502e-05
 Reference value :  3.27503e-05
 Reference value :  3.27514e-05
 Reference value :  3.27530e-05
 Reference value :  3.27550e-05
 Reference value :  3.27591e-05
 Reference value :  3.28041e-05
 Reference value :  3.30000e-05
 Reference value :  3.30002e-05
 Reference value :  3.30008e-05
 Reference value :  3.30018e-05
 Reference value :  3.30026e-05
 Reference value :  3.30047e-05
 Reference value :  3.30074e-05
 Reference value :  3.30090e-05
 Reference value :  3.30124e-05
 Reference value :  3.30469e-05
 Reference value :  3.32501e-05
 Reference value :  3.32502e-05
 Reference value :  3.32503e-05
 Reference value :  3.32509e-05
 Reference value :  3.32518e-05
 Reference value :  3.32538e-05
 Reference value :  3.32550e-05
 Reference value :  3.32567e-05
 Reference value :  3.32584e-05
 Reference value :  3.32648e-05
 Reference value :  3.33070e-05
 Reference value :  3.35013e-05
 Reference value :  3.35052e-05
 Reference value :  3.35075e-05
 Reference value :  3.35095e-05
 Reference value :  3.35113e-05
 Reference value :  3.35135e-05
 Reference value :  3.35182e-05
 Reference value :  3.35255e-05
 Reference value :  3.35400e-05
 Reference value :  3.35487e-05
 Reference value :  3.35666e-05
 Reference value :  3.35842e-05
 Reference value :  3.36157e-05
 Reference value :  3.37288e-05
 Reference value :  3.37501e-05
 Reference value :  3.37502e-05
 Reference value :  3.37502e-05
 Reference value :  3.37503e-05
 Reference value :  3.37507e-05
 Reference value :  3.37514e-05
 Reference value :  3.37530e-05
 Reference value :  3.37555e-05
 Reference value :  3.37591e-05
 Reference value :  3.37790e-05
 Reference value :  3.38727e-05
 Reference value :  3.40000e-05
 Reference value :  3.40000e-05
 Reference value :  3.40000e-05
 Reference value :  3.40000e-05
 Reference value :  3.40001e-05
 Reference value :  3.40001e-05
 Reference value :  3.40004e-05
 Reference value :  3.40017e-05
 Reference value :  3.40027e-05
 Reference value :  3.40040e-05
 Reference value :  3.40054e-05
 Reference value :  3.40068e-05
 Reference value :  3.40109e-05
 Reference value :  3.40269e-05
 Reference value :  3.40314e-05
 Reference value :  3.40388e-05
 Reference value :  3.40483e-05
 Reference value :  3.40733e-05
 Reference value :  3.41779e-05
 Reference value :  3.42501e-05
 Reference value :  3.42502e-05
 Reference value :  3.42503e-05
 Reference value :  3.42507e-05
 Reference value :  3.42514e-05
 Reference value :  3.42530e-05
 Reference value :  3.42544e-05
 Reference value :  3.42557e-05
 Reference value :  3.42576e-05
 Reference value :  3.42615e-05
 Reference value :  3.42839e-05
 Reference value :  3.44047e-05
 Reference value :  3.45000e-05
 Reference value :  3.45001e-05
 Reference value :  3.45002e-05
 Reference value :  3.45005e-05
 Reference value :  3.45013e-05
 Reference value :  3.45022e-05
 Reference value :  3.45032e-05
 Reference value :  3.45044e-05
 Reference value :  3.45062e-05
 Reference value :  3.45089e-05
 Reference value :  3.45114e-05
 Reference value :  3.45127e-05
 Reference value :  3.45156e-05
 Reference value :  3.45191e-05
 Reference value :  3.45319e-05
 Reference value :  3.46511e-05
 Reference value :  3.47501e-05
 Reference value :  3.47502e-05
 Reference value :  3.47503e-05
 Reference value :  3.47509e-05
 Reference value :  3.47514e-05
 Reference value :  3.47524e-05
 Reference value :  3.47538e-05
 Reference value :  3.47551e-05
 Reference value :  3.47576e-05
 Reference value :  3.47725e-05
 Reference value :  3.49046e-05
 Reference value :  3.50000e-05
 Reference value :  3.50001e-05
 Reference value :  3.50002e-05
 Reference value :  3.50008e-05
 Reference value :  3.50018e-05
 Reference value :  3.50027e-05
 Reference value :  3.50039e-05
 Reference value :  3.50044e-05
 Reference value :  3.50056e-05
 Reference value :  3.50067e-05
 Reference value :  3.50100e-05
 Reference value :  3.50128e-05
 Reference value :  3.50160e-05
 Reference value :  3.50181e-05
 Reference value :  3.50253e-05
 Reference value :  3.50799e-05
 Reference value :  3.52501e-05
 Reference value :  3.52502e-05
 Reference value :  3.52509e-05
 Reference value :  3.52530e-05
 Reference value :  3.52551e-05
 Reference value :  3.52615e-05
 Reference value :  3.53402e-05
 Reference value :  3.55000e-05
 Reference value :  3.55001e-05
 Reference value :  3.55005e-05
 Reference value :  3.55013e-05
 Reference value :  3.55022e-05
 Reference value :  3.55032e-05
 Reference value :  3.55044e-05
 Reference value :  3.55062e-05
 Reference value :  3.55082e-05
 Reference value :  3.55103e-05
 Reference value :  3.55154e-05
 Reference value :  3.55790e-05
 Reference value :  3.57501e-05
 Reference value :  3.57502e-05
 Reference value :  3.57503e-05
 Reference value :  3.57509e-05
 Reference value :  3.57518e-05
 Reference value :  3.57530e-05
 Reference value :  3.57544e-05
 Reference value :  3.57558e-05
 Reference value :  3.57592e-05
 Reference value :  3.57839e-05
 Reference value :  3.60000e-05
 Reference value :  3.60015e-05
 Reference value :  3.60045e-05
 Reference value :  3.60061e-05
 Reference value :  3.60091e-05
 Reference value :  3.60106e-05
 Reference value :  3.60136e-05
 Reference value :  3.60145e-05
 Reference value :  3.60166e-05
 Reference value :  3.60201e-05
 Reference value :  3.60241e-05
 Reference value :  3.60296e-05
 Reference value :  3.60315e-05
 Reference value :  3.60373e-05
 Reference value :  3.60432e-05
 Reference value :  3.60555e-05
 Reference value :  3.60731e-05
 Reference value :  3.62004e-05
 Reference value :  3.62501e-05
 Reference value :  3.62502e-05
 Reference value :  3.62504e-05
 Reference value :  3.62514e-05
 Reference value :  3.62530e-05
 Reference value :  3.62544e-05
 Reference value :  3.62567e-05
 Reference value :  3.62660e-05
 Reference value :  3.63386e-05
 Reference value :  3.65000e-05
 Reference value :  3.65001e-05
 Reference value :  3.65002e-05
 Reference value :  3.65013e-05
 Reference value :  3.65022e-05
 Reference value :  3.65033e-05
 Reference value :  3.65048e-05
 Reference value :  3.65067e-05
 Reference value :  3.65075e-05
 Reference value :  3.65092e-05
 Reference value :  3.65146e-05
 Reference value :  3.66439e-05
 Reference value :  3.67502e-05
 Reference value :  3.67503e-05
 Reference value :  3.67507e-05
 Reference value :  3.67514e-05
 Reference value :  3.67530e-05
 Reference value :  3.67544e-05
 Reference value :  3.67567e-05
 Reference value :  3.67584e-05
 Reference value :  3.67607e-05
 Reference value :  3.67648e-05
 Reference value :  3.67872e-05
 Reference value :  3.69236e-05
 Reference value :  3.70000e-05
 Reference value :  3.70001e-05
 Reference value :  3.70002e-05
 Reference value :  3.70008e-05
 Reference value :  3.70018e-05
 Reference value :  3.70027e-05
 Reference value :  3.70039e-05
 Reference value :  3.70044e-05
 Reference value :  3.70056e-05
 Reference value :  3.70061e-05
 Reference value :  3.70076e-05
 Reference value :  3.70097e-05
 Reference value :  3.70107e-05
 Reference value :  3.70128e-05
 Reference value :  3.70145e-05
 Reference value :  3.70165e-05
 Reference value :  3.70186e-05
 Reference value :  3.70232e-05
 Reference value :  3.70536e-05
 Reference value :  3.70741e-05
 Reference value :  3.70799e-05
 Reference value :  3.70902e-05
 Reference value :  3.71009e-05
 Reference value :  3.71200e-05
 Reference value :  3.71330e-05
 Reference value :  3.71428e-05
 Reference value :  3.71570e-05
 Reference value :  3.71694e-05
 Reference value :  3.71945e-05
 Reference value :  3.72501e-05
 Reference value :  3.72502e-05
 Reference value :  3.72503e-05
 Reference value :  3.72507e-05
 Reference value :  3.72514e-05
 Reference value :  3.72524e-05
 Reference value :  3.72537e-05
 Reference value :  3.72551e-05
 Reference value :  3.72568e-05
 Reference value :  3.72594e-05
 Reference value :  3.72730e-05
 Reference value :  3.73385e-05
 Reference value :  3.75000e-05
 Reference value :  3.75000e-05
 Reference value :  3.75001e-05
 Reference value :  3.75001e-05
 Reference value :  3.75002e-05
 Reference value :  3.75005e-05
 Reference value :  3.75013e-05
 Reference value :  3.75022e-05
 Reference value :  3.75033e-05
 Reference value :  3.75039e-05
 Reference value :  3.75047e-05
 Reference value :  3.75066e-05
 Reference value :  3.75073e-05
 Reference value :  3.75090e-05
 Reference value :  3.75112e-05
 Reference value :  3.75195e-05
 Reference value :  3.75851e-05
 Reference value :  3.77501e-05
 Reference value :  3.77502e-05
 Reference value :  3.77503e-05
 Reference value :  3.77504e-05
 Reference value :  3.77509e-05
 Reference value :  3.77518e-05
 Reference value :  3.77530e-05
 Reference value :  3.77544e-05
 Reference value :  3.77558e-05
 Reference value :  3.77576e-05
 Reference value :  3.77593e-05
 Reference value :  3.77649e-05
 Reference value :  3.78076e-05
 Reference value :  3.80000e-05
 Reference value :  3.80001e-05
 Reference value :  3.80002e-05
 Reference value :  3.80008e-05
 Reference value :  3.80018e-05
 Reference value :  3.80027e-05
 Reference value :  3.80033e-05
 Reference value :  3.80044e-05
 Reference value :  3.80056e-05
 Reference value :  3.80061e-05
 Reference value :  3.80084e-05
 Reference value :  3.80107e-05
 Reference value :  3.80117e-05
 Reference value :  3.80137e-05
 Reference value :  3.80155e-05
 Reference value :  3.80185e-05
 Reference value :  3.80213e-05
 Reference value :  3.80321e-05
 Reference value :  3.80373e-05
 Reference value :  3.80460e-05
 Reference value :  3.80515e-05
 Reference value :  3.80681e-05
 Reference value :  3.81154e-05
 Reference value :  3.81696e-05
 Reference value :  3.81898e-05
 Reference value :  3.82245e-05
 Reference value :  3.82501e-05
 Reference value :  3.82502e-05
 Reference value :  3.82503e-05
 Reference value :  3.82509e-05
 Reference value :  3.82514e-05
 Reference value :  3.82524e-05
 Reference value :  3.82537e-05
 Reference value :  3.82551e-05
 Reference value :  3.82579e-05
 Reference value :  3.82660e-05
 Reference value :  3.83047e-05
 Reference value :  3.85000e-05
 Reference value :  3.85018e-05
 Reference value :  3.85055e-05
 Reference value :  3.85074e-05
 Reference value :  3.85107e-05
 Reference value :  3.85142e-05
 Reference value :  3.85308e-05
 Reference value :  3.86508e-05
 Reference value :  3.87501e-05
 Reference value :  3.87502e-05
 Reference value :  3.87502e-05
 Reference value :  3.87504e-05
 Reference value :  3.87509e-05
 Reference value :  3.87514e-05
 Reference value :  3.87524e-05
 Reference value :  3.87536e-05
 Reference value :  3.87542e-05
 Reference value :  3.87555e-05
 Reference value :  3.87571e-05
 Reference value :  3.87602e-05
 Reference value :  3.87671e-05
 Reference value :  3.88265e-05
 Reference value :  3.90000e-05
 Reference value :  3.90001e-05
 Reference value :  3.90002e-05
 Reference value :  3.90005e-05
 Reference value :  3.90013e-05
 Reference value :  3.90022e-05
 Reference value :  3.90033e-05
 Reference value :  3.90044e-05
 Reference value :  3.90056e-05
 Reference value :  3.90061e-05
 Reference value :  3.90076e-05
 Reference value :  3.90097e-05
 Reference value :  3.90107e-05
 Reference value :  3.90129e-05
 Reference value :  3.90137e-05
 Reference value :  3.90155e-05
 Reference value :  3.90187e-05
 Reference value :  3.90230e-05
 Reference value :  3.90302e-05
 Reference value :  3.90337e-05
 Reference value :  3.90452e-05
 Reference value :  3.90941e-05
 Reference value :  3.92501e-05
 Reference value :  3.92502e-05
 Reference value :  3.92503e-05
 Reference value :  3.92507e-05
 Reference value :  3.92514e-05
 Reference value :  3.92530e-05
 Reference value :  3.92544e-05
 Reference value :  3.92567e-05
 Reference value :  3.92614e-05
 Reference value :  3.93049e-05
 Reference value :  3.95000e-05
 Reference value :  3.95001e-05
 Reference value :  3.95002e-05
 Reference value :  3.95013e-05
 Reference value :  3.95022e-05
 Reference value :  3.95032e-05
 Reference value :  3.95044e-05
 Reference value :  3.95062e-05
 Reference value :  3.95082e-05
 Reference value :  3.95116e-05
 Reference value :  3.95287e-05
 Reference value :  3.97501e-05
 Reference value :  3.97502e-05
 Reference value :  3.97503e-05
 Reference value :  3.97509e-05
 Reference value :  3.97518e-05
 Reference value :  3.97538e-05
 Reference value :  3.97551e-05
 Reference value :  3.97576e-05
 Reference value :  3.97725e-05
 Reference value :  3.99051e-05
 Reference value :  4.00001e-05
 Reference value :  4.00002e-05
 Reference value :  4.00005e-05
 Reference value :  4.00013e-05
 Reference value :  4.00022e-05
 Reference value :  4.00033e-05
 Reference value :  4.00044e-05
 Reference value :  4.00056e-05
 Reference value :  4.00067e-05
 Reference value :  4.00100e-05
 Reference value :  4.00128e-05
 Reference value :  4.00149e-05
 Reference value :  4.00171e-05
 Reference value :  4.00211e-05
 Reference value :  4.00355e-05
 Reference value :  4.00390e-05
 Reference value :  4.00466e-05
 Reference value :  4.00608e-05
 Reference value :  4.00988e-05
 Reference value :  4.02501e-05
 Reference value :  4.02502e-05
 Reference value :  4.02503e-05
 Reference value :  4.02507e-05
 Reference value :  4.02514e-05
 Reference value :  4.02530e-05
 Reference value :  4.02551e-05
 Reference value :  4.02594e-05
 Reference value :  4.02846e-05
 Reference value :  4.05000e-05
 Reference value :  4.05001e-05
 Reference value :  4.05002e-05
 Reference value :  4.05005e-05
 Reference value :  4.05013e-05
 Reference value :  4.05022e-05
 Reference value :  4.05039e-05
 Reference value :  4.05055e-05
 Reference value :  4.05073e-05
 Reference value :  4.05090e-05
 Reference value :  4.05124e-05
 Reference value :  4.05476e-05
 Reference value :  4.07501e-05
 Reference value :  4.07502e-05
 Reference value :  4.07503e-05
 Reference value :  4.07509e-05
 Reference value :  4.07514e-05
 Reference value :  4.07524e-05
 Reference value :  4.07538e-05
 Reference value :  4.07544e-05
 Reference value :  4.07558e-05
 Reference value :  4.07576e-05
 Reference value :  4.07593e-05
 Reference value :  4.07683e-05
 Reference value :  4.09242e-05
 Reference value :  4.10013e-05
 Reference value :  4.10051e-05
 Reference value :  4.10073e-05
 Reference value :  4.10103e-05
 Reference value :  4.10122e-05
 Reference value :  4.10140e-05
 Reference value :  4.10167e-05
 Reference value :  4.10187e-05
 Reference value :  4.10214e-05
 Reference value :  4.10293e-05
 Reference value :  4.10524e-05
 Reference value :  4.11392e-05
 Reference value :  4.12501e-05
 Reference value :  4.12502e-05
 Reference value :  4.12502e-05
 Reference value :  4.12504e-05
 Reference value :  4.12509e-05
 Reference value :  4.12514e-05
 Reference value :  4.12524e-05
 Reference value :  4.12543e-05
 Reference value :  4.12566e-05
 Reference value :  4.12613e-05
 Reference value :  4.13034e-05
 Reference value :  4.15000e-05
 Reference value :  4.15001e-05
 Reference value :  4.15002e-05
 Reference value :  4.15008e-05
 Reference value :  4.15018e-05
 Reference value :  4.15026e-05
 Reference value :  4.15039e-05
 Reference value :  4.15055e-05
 Reference value :  4.15073e-05
 Reference value :  4.15090e-05
 Reference value :  4.15124e-05
 Reference value :  4.15476e-05
 Reference value :  4.17501e-05
 Reference value :  4.17502e-05
 Reference value :  4.17503e-05
 Reference value :  4.17509e-05
 Reference value :  4.17518e-05
 Reference value :  4.17530e-05
 Reference value :  4.17544e-05
 Reference value :  4.17558e-05
 Reference value :  4.17576e-05
 Reference value :  4.17593e-05
 Reference value :  4.17648e-05
 Reference value :  4.18073e-05
 Reference value :  4.20000e-05
 Reference value :  4.20001e-05
 Reference value :  4.20002e-05
 Reference value :  4.20008e-05
 Reference value :  4.20018e-05
 Reference value :  4.20022e-05
 Reference value :  4.20033e-05
 Reference value :  4.20044e-05
 Reference value :  4.20056e-05
 Reference value :  4.20067e-05
 Reference value :  4.20093e-05
 Reference value :  4.20119e-05
 Reference value :  4.20173e-05
 Reference value :  4.20337e-05
 Reference value :  4.20450e-05
 Reference value :  4.20622e-05
 Reference value :  4.21856e-05
 Reference value :  4.22501e-05
 Reference value :  4.22502e-05
 Reference value :  4.22507e-05
 Reference value :  4.22514e-05
 Reference value :  4.22524e-05
 Reference value :  4.22539e-05
 Reference value :  4.22566e-05
 Reference value :  4.22618e-05
 Reference value :  4.22964e-05
 Reference value :  4.25000e-05
 Reference value :  4.25000e-05
 Reference value :  4.25000e-05
 Reference value :  4.25001e-05
 Reference value :  4.25002e-05
 Reference value :  4.25008e-05
 Reference value :  4.25017e-05
 Reference value :  4.25027e-05
 Reference value :  4.25048e-05
 Reference value :  4.25054e-05
 Reference value :  4.25068e-05
 Reference value :  4.25109e-05
 Reference value :  4.25269e-05
 Reference value :  4.25314e-05
 Reference value :  4.25388e-05
 Reference value :  4.25492e-05
 Reference value :  4.25665e-05
 Reference value :  4.26080e-05
 Reference value :  4.27498e-05
 Reference value :  4.27501e-05
 Reference value :  4.27502e-05
 Reference value :  4.27503e-05
 Reference value :  4.27509e-05
 Reference value :  4.27518e-05
 Reference value :  4.27530e-05
 Reference value :  4.27544e-05
 Reference value :  4.27557e-05
 Reference value :  4.27592e-05
 Reference value :  4.27725e-05
 Reference value :  4.29052e-05
 Reference value :  4.30001e-05
 Reference value :  4.30001e-05
 Reference value :  4.30003e-05
 Reference value :  4.30013e-05
 Reference value :  4.30022e-05
 Reference value :  4.30032e-05
 Reference value :  4.30044e-05
 Reference value :  4.30062e-05
 Reference value :  4.30089e-05
 Reference value :  4.30101e-05
 Reference value :  4.30127e-05
 Reference value :  4.30156e-05
 Reference value :  4.30191e-05
 Reference value :  4.30249e-05
 Reference value :  4.30557e-05
 Reference value :  4.32501e-05
 Reference value :  4.32501e-05
 Reference value :  4.32502e-05
 Reference value :  4.32503e-05
 Reference value :  4.32507e-05
 Reference value :  4.32514e-05
 Reference value :  4.32524e-05
 Reference value :  4.32538e-05
 Reference value :  4.32544e-05
 Reference value :  4.32558e-05
 Reference value :  4.32576e-05
 Reference value :  4.32655e-05
 Reference value :  4.33048e-05
 Reference value :  4.35000e-05
 Reference value :  4.35017e-05
 Reference value :  4.35068e-05
 Reference value :  4.35122e-05
 Reference value :  4.35153e-05
 Reference value :  4.35193e-05
 Reference value :  4.35370e-05
 Reference value :  4.37501e-05
 Reference value :  4.37502e-05
 Reference value :  4.37504e-05
 Reference value :  4.37514e-05
 Reference value :  4.37530e-05
 Reference value :  4.37549e-05
 Reference value :  4.37590e-05
 Reference value :  4.38033e-05
 Reference value :  4.40000e-05
 Reference value :  4.40001e-05
 Reference value :  4.40005e-05
 Reference value :  4.40018e-05
 Reference value :  4.40032e-05
 Reference value :  4.40051e-05
 Reference value :  4.40082e-05
 Reference value :  4.40115e-05
 Reference value :  4.40205e-05
 Reference value :  4.40793e-05
 Reference value :  4.42501e-05
 Reference value :  4.42502e-05
 Reference value :  4.42503e-05
 Reference value :  4.42507e-05
 Reference value :  4.42514e-05
 Reference value :  4.42524e-05
 Reference value :  4.42538e-05
 Reference value :  4.42551e-05
 Reference value :  4.42567e-05
 Reference value :  4.42592e-05
 Reference value :  4.42838e-05
 Reference value :  4.45000e-05
 Reference value :  4.45001e-05
 Reference value :  4.45003e-05
 Reference value :  4.45013e-05
 Reference value :  4.45027e-05
 Reference value :  4.45039e-05
 Reference value :  4.45050e-05
 Reference value :  4.45061e-05
 Reference value :  4.45100e-05
 Reference value :  4.45128e-05
 Reference value :  4.45160e-05
 Reference value :  4.45194e-05
 Reference value :  4.45317e-05
 Reference value :  4.45396e-05
 Reference value :  4.45483e-05
 Reference value :  4.45636e-05
 Reference value :  4.46109e-05
 Reference value :  4.47501e-05
 Reference value :  4.47502e-05
 Reference value :  4.47507e-05
 Reference value :  4.47518e-05
 Reference value :  4.47537e-05
 Reference value :  4.47558e-05
 Reference value :  4.47660e-05
 Reference value :  4.49008e-05
 Reference value :  4.50001e-05
 Reference value :  4.50002e-05
 Reference value :  4.50013e-05
 Reference value :  4.50033e-05
 Reference value :  4.50047e-05
 Reference value :  4.50073e-05
 Reference value :  4.50100e-05
 Reference value :  4.50289e-05
 Reference value :  4.52501e-05
 Reference value :  4.52503e-05
 Reference value :  4.52509e-05
 Reference value :  4.52518e-05
 Reference value :  4.52538e-05
 Reference value :  4.52550e-05
 Reference value :  4.52576e-05
 Reference value :  4.52607e-05
 Reference value :  4.52752e-05
 Reference value :  4.55000e-05
 Reference value :  4.55001e-05
 Reference value :  4.55002e-05
 Reference value :  4.55013e-05
 Reference value :  4.55022e-05
 Reference value :  4.55033e-05
 Reference value :  4.55044e-05
 Reference value :  4.55056e-05
 Reference value :  4.55067e-05
 Reference value :  4.55097e-05
 Reference value :  4.55117e-05
 Reference value :  4.55137e-05
 Reference value :  4.55155e-05
 Reference value :  4.55186e-05
 Reference value :  4.55267e-05
 Reference value :  4.55640e-05
 Reference value :  4.55788e-05
 Reference value :  4.55889e-05
 Reference value :  4.56101e-05
 Reference value :  4.56295e-05
 Reference value :  4.56596e-05
 Reference value :  4.56829e-05
 Reference value :  4.57501e-05
 Reference value :  4.57503e-05
 Reference value :  4.57514e-05
 Reference value :  4.57537e-05
 Reference value :  4.57568e-05
 Reference value :  4.57847e-05
 Reference value :  4.60018e-05
 Reference value :  4.60073e-05
 Reference value :  4.60106e-05
 Reference value :  4.60141e-05
 Reference value :  4.60305e-05
 Reference value :  4.61501e-05
 Reference value :  4.62501e-05
 Reference value :  4.62502e-05
 Reference value :  4.62504e-05
 Reference value :  4.62514e-05
 Reference value :  4.62530e-05
 Reference value :  4.62548e-05
 Reference value :  4.62571e-05
 Reference value :  4.62619e-05
 Reference value :  4.62822e-05
 Reference value :  4.65000e-05
 Reference value :  4.65001e-05
 Reference value :  4.65002e-05
 Reference value :  4.65013e-05
 Reference value :  4.65027e-05
 Reference value :  4.65044e-05
 Reference value :  4.65056e-05
 Reference value :  4.65067e-05
 Reference value :  4.65084e-05
 Reference value :  4.65107e-05
 Reference value :  4.65118e-05
 Reference value :  4.65137e-05
 Reference value :  4.65155e-05
 Reference value :  4.65175e-05
 Reference value :  4.65185e-05
 Reference value :  4.65213e-05
 Reference value :  4.65322e-05
 Reference value :  4.65375e-05
 Reference value :  4.65426e-05
 Reference value :  4.65461e-05
 Reference value :  4.65520e-05
 Reference value :  4.65640e-05
 Reference value :  4.66305e-05
 Reference value :  4.67086e-05
 Reference value :  4.67501e-05
 Reference value :  4.67503e-05
 Reference value :  4.67514e-05
 Reference value :  4.67524e-05
 Reference value :  4.67537e-05
 Reference value :  4.67550e-05
 Reference value :  4.67576e-05
 Reference value :  4.67720e-05
 Reference value :  4.68699e-05
 Reference value :  4.70000e-05
 Reference value :  4.70001e-05
 Reference value :  4.70002e-05
 Reference value :  4.70005e-05
 Reference value :  4.70013e-05
 Reference value :  4.70022e-05
 Reference value :  4.70039e-05
 Reference value :  4.70055e-05
 Reference value :  4.70073e-05
 Reference value :  4.70090e-05
 Reference value :  4.70112e-05
 Reference value :  4.70196e-05
[...]
 Reference value :  1.67006e-04
 Reference value :  1.67007e-04
 Reference value :  1.67009e-04
 Reference value :  1.67011e-04
 Reference value :  1.67020e-04
 Reference value :  1.67083e-04
 Reference value :  1.67250e-04
 Reference value :  1.67250e-04
 Reference value :  1.67250e-04
 Reference value :  1.67251e-04
 Reference value :  1.67251e-04
 Reference value :  1.67252e-04
 Reference value :  1.67254e-04
 Reference value :  1.67254e-04
 Reference value :  1.67256e-04
 Reference value :  1.67258e-04
 Reference value :  1.67258e-04
 Reference value :  1.67261e-04
 Reference value :  1.67265e-04
 Reference value :  1.67287e-04
 Reference value :  1.67424e-04
 Reference value :  1.67500e-04
 Reference value :  1.67500e-04
 Reference value :  1.67500e-04
 Reference value :  1.67500e-04
 Reference value :  1.67500e-04
 Reference value :  1.67501e-04
 Reference value :  1.67501e-04
 Reference value :  1.67502e-04
 Reference value :  1.67503e-04
 Reference value :  1.67504e-04
 Reference value :  1.67506e-04
 Reference value :  1.67507e-04
 Reference value :  1.67510e-04
 Reference value :  1.67512e-04
 Reference value :  1.67514e-04
 Reference value :  1.67516e-04
 Reference value :  1.67518e-04
 Reference value :  1.67520e-04
 Reference value :  1.67523e-04
 Reference value :  1.67534e-04
 Reference value :  1.67558e-04
 Reference value :  1.67585e-04
 Reference value :  1.67635e-04
 Reference value :  1.67750e-04
 Reference value :  1.67750e-04
 Reference value :  1.67750e-04
 Reference value :  1.67751e-04
 Reference value :  1.67751e-04
 Reference value :  1.67753e-04
 Reference value :  1.67754e-04
 Reference value :  1.67756e-04
 Reference value :  1.67759e-04
 Reference value :  1.67772e-04
 Reference value :  1.67839e-04
 Reference value :  1.68000e-04
 Reference value :  1.68000e-04
 Reference value :  1.68000e-04
 Reference value :  1.68000e-04
 Reference value :  1.68001e-04
 Reference value :  1.68002e-04
 Reference value :  1.68004e-04
 Reference value :  1.68006e-04
 Reference value :  1.68007e-04
 Reference value :  1.68009e-04
 Reference value :  1.68012e-04
 Reference value :  1.68047e-04
 Reference value :  1.68250e-04
 Reference value :  1.68250e-04
 Reference value :  1.68250e-04
 Reference value :  1.68251e-04
 Reference value :  1.68251e-04
 Reference value :  1.68253e-04
 Reference value :  1.68254e-04
 Reference value :  1.68257e-04
 Reference value :  1.68258e-04
 Reference value :  1.68262e-04
 Reference value :  1.68287e-04
 Reference value :  1.68423e-04
 Reference value :  1.68500e-04
 Reference value :  1.68500e-04
 Reference value :  1.68500e-04
 Reference value :  1.68502e-04
 Reference value :  1.68503e-04
 Reference value :  1.68504e-04
 Reference value :  1.68506e-04
 Reference value :  1.68508e-04
 Reference value :  1.68512e-04
 Reference value :  1.68514e-04
 Reference value :  1.68519e-04
 Reference value :  1.68529e-04
 Reference value :  1.68733e-04
 Reference value :  1.68750e-04
 Reference value :  1.68751e-04
 Reference value :  1.68752e-04
 Reference value :  1.68754e-04
 Reference value :  1.68758e-04
 Reference value :  1.68804e-04
 Reference value :  1.69000e-04
 Reference value :  1.69000e-04
 Reference value :  1.69001e-04
 Reference value :  1.69003e-04
 Reference value :  1.69004e-04
 Reference value :  1.69006e-04
 Reference value :  1.69007e-04
 Reference value :  1.69009e-04
 Reference value :  1.69015e-04
 Reference value :  1.69250e-04
 Reference value :  1.69250e-04
 Reference value :  1.69250e-04
 Reference value :  1.69251e-04
 Reference value :  1.69253e-04
 Reference value :  1.69254e-04
 Reference value :  1.69257e-04
 Reference value :  1.69261e-04
 Reference value :  1.69307e-04
 Reference value :  1.69500e-04
 Reference value :  1.69500e-04
 Reference value :  1.69502e-04
 Reference value :  1.69503e-04
 Reference value :  1.69505e-04
 Reference value :  1.69506e-04
 Reference value :  1.69509e-04
 Reference value :  1.69513e-04
 Reference value :  1.69524e-04
 Reference value :  1.69546e-04
 Reference value :  1.69572e-04
 Reference value :  1.69630e-04
 Reference value :  1.69750e-04
 Reference value :  1.69750e-04
 Reference value :  1.69750e-04
 Reference value :  1.69751e-04
 Reference value :  1.69753e-04
 Reference value :  1.69755e-04
 Reference value :  1.69758e-04
 Reference value :  1.69765e-04
 Reference value :  1.69826e-04
 Reference value :  1.70000e-04
 Reference value :  1.70000e-04
 Reference value :  1.70000e-04
 Reference value :  1.70000e-04
 Reference value :  1.70000e-04
 Reference value :  1.70001e-04
 Reference value :  1.70002e-04
 Reference value :  1.70004e-04
 Reference value :  1.70005e-04
 Reference value :  1.70007e-04
 Reference value :  1.70014e-04
 Reference value :  1.70027e-04
 Reference value :  1.70031e-04
 Reference value :  1.70039e-04
 Reference value :  1.70048e-04
 Reference value :  1.70073e-04
 Reference value :  1.70169e-04
 Reference value :  1.70250e-04
 Reference value :  1.70250e-04
 Reference value :  1.70250e-04
 Reference value :  1.70250e-04
 Reference value :  1.70251e-04
 Reference value :  1.70254e-04
 Reference value :  1.70257e-04
 Reference value :  1.70265e-04
 Reference value :  1.70340e-04
 Reference value :  1.70500e-04
 Reference value :  1.70500e-04
 Reference value :  1.70500e-04
 Reference value :  1.70501e-04
 Reference value :  1.70502e-04
 Reference value :  1.70503e-04
 Reference value :  1.70504e-04
 Reference value :  1.70506e-04
 Reference value :  1.70509e-04
 Reference value :  1.70511e-04
 Reference value :  1.70514e-04
 Reference value :  1.70516e-04
 Reference value :  1.70519e-04
 Reference value :  1.70532e-04
 Reference value :  1.70588e-04
 Reference value :  1.70750e-04
 Reference value :  1.70750e-04
 Reference value :  1.70750e-04
 Reference value :  1.70750e-04
 Reference value :  1.70751e-04
 Reference value :  1.70751e-04
 Reference value :  1.70752e-04
 Reference value :  1.70754e-04
 Reference value :  1.70754e-04
 Reference value :  1.70756e-04
 Reference value :  1.70758e-04
 Reference value :  1.70765e-04
 Reference value :  1.70805e-04
 Reference value :  1.70905e-04
 Reference value :  1.71000e-04
 Reference value :  1.71000e-04
 Reference value :  1.71000e-04
 Reference value :  1.71000e-04
 Reference value :  1.71001e-04
 Reference value :  1.71002e-04
 Reference value :  1.71003e-04
 Reference value :  1.71004e-04
 Reference value :  1.71005e-04
 Reference value :  1.71006e-04
 Reference value :  1.71006e-04
 Reference value :  1.71008e-04
 Reference value :  1.71010e-04
 Reference value :  1.71013e-04
 Reference value :  1.71014e-04
 Reference value :  1.71016e-04
 Reference value :  1.71017e-04
 Reference value :  1.71021e-04
 Reference value :  1.71039e-04
 Reference value :  1.71204e-04
 Reference value :  1.71250e-04
 Reference value :  1.71250e-04
 Reference value :  1.71250e-04
 Reference value :  1.71251e-04
 Reference value :  1.71253e-04
 Reference value :  1.71254e-04
 Reference value :  1.71257e-04
 Reference value :  1.71305e-04
 Reference value :  1.71500e-04
 Reference value :  1.71500e-04
 Reference value :  1.71500e-04
 Reference value :  1.71502e-04
 Reference value :  1.71503e-04
 Reference value :  1.71504e-04
 Reference value :  1.71505e-04
 Reference value :  1.71507e-04
 Reference value :  1.71509e-04
 Reference value :  1.71513e-04
 Reference value :  1.71529e-04
 Reference value :  1.71646e-04
 Reference value :  1.71750e-04
 Reference value :  1.71750e-04
 Reference value :  1.71750e-04
 Reference value :  1.71751e-04
 Reference value :  1.71752e-04
 Reference value :  1.71753e-04
 Reference value :  1.71754e-04
 Reference value :  1.71756e-04
 Reference value :  1.71759e-04
 Reference value :  1.71773e-04
 Reference value :  1.71840e-04
 Reference value :  1.72000e-04
 Reference value :  1.72000e-04
 Reference value :  1.72000e-04
 Reference value :  1.72000e-04
 Reference value :  1.72000e-04
 Reference value :  1.72001e-04
 Reference value :  1.72001e-04
 Reference value :  1.72002e-04
 Reference value :  1.72004e-04
 Reference value :  1.72005e-04
 Reference value :  1.72006e-04
 Reference value :  1.72008e-04
 Reference value :  1.72013e-04
 Reference value :  1.72016e-04
 Reference value :  1.72018e-04
 Reference value :  1.72023e-04
 Reference value :  1.72029e-04
 Reference value :  1.72035e-04
 Reference value :  1.72041e-04
 Reference value :  1.72047e-04
 Reference value :  1.72056e-04
 Reference value :  1.72073e-04
 Reference value :  1.72188e-04
 Reference value :  1.72250e-04
 Reference value :  1.72250e-04
 Reference value :  1.72251e-04
 Reference value :  1.72252e-04
 Reference value :  1.72254e-04
 Reference value :  1.72256e-04
 Reference value :  1.72259e-04
 Reference value :  1.72273e-04
 Reference value :  1.72401e-04
 Reference value :  1.72500e-04
 Reference value :  1.72500e-04
 Reference value :  1.72500e-04
 Reference value :  1.72501e-04
 Reference value :  1.72502e-04
 Reference value :  1.72503e-04
 Reference value :  1.72504e-04
 Reference value :  1.72506e-04
 Reference value :  1.72507e-04
 Reference value :  1.72509e-04
 Reference value :  1.72512e-04
 Reference value :  1.72529e-04
 Reference value :  1.72660e-04
 Reference value :  1.72750e-04
 Reference value :  1.72750e-04
 Reference value :  1.72750e-04
 Reference value :  1.72750e-04
 Reference value :  1.72751e-04
 Reference value :  1.72751e-04
 Reference value :  1.72752e-04
 Reference value :  1.72754e-04
 Reference value :  1.72754e-04
 Reference value :  1.72756e-04
 Reference value :  1.72758e-04
 Reference value :  1.72759e-04
 Reference value :  1.72762e-04
 Reference value :  1.72775e-04
 Reference value :  1.72808e-04
 Reference value :  1.73000e-04
 Reference value :  1.73000e-04
 Reference value :  1.73000e-04
 Reference value :  1.73000e-04
 Reference value :  1.73000e-04
 Reference value :  1.73000e-04
 Reference value :  1.73001e-04
 Reference value :  1.73002e-04
 Reference value :  1.73003e-04
 Reference value :  1.73004e-04
 Reference value :  1.73006e-04
 Reference value :  1.73006e-04
 Reference value :  1.73008e-04
 Reference value :  1.73011e-04
 Reference value :  1.73013e-04
 Reference value :  1.73014e-04
 Reference value :  1.73015e-04
 Reference value :  1.73019e-04
 Reference value :  1.73023e-04
 Reference value :  1.73040e-04
 Reference value :  1.73057e-04
 Reference value :  1.73064e-04
 Reference value :  1.73069e-04
 Reference value :  1.73077e-04
 Reference value :  1.73093e-04
 Reference value :  1.73111e-04
 Reference value :  1.73147e-04
 Reference value :  1.73156e-04
 Reference value :  1.73171e-04
 Reference value :  1.73181e-04
 Reference value :  1.73194e-04
 Reference value :  1.73209e-04
 Reference value :  1.73245e-04
 Reference value :  1.73250e-04
 Reference value :  1.73250e-04
 Reference value :  1.73250e-04
 Reference value :  1.73251e-04
 Reference value :  1.73253e-04
 Reference value :  1.73254e-04
 Reference value :  1.73257e-04
 Reference value :  1.73262e-04
 Reference value :  1.73285e-04
 Reference value :  1.73401e-04
 Reference value :  1.73500e-04
 Reference value :  1.73500e-04
 Reference value :  1.73500e-04
 Reference value :  1.73501e-04
 Reference value :  1.73502e-04
 Reference value :  1.73503e-04
 Reference value :  1.73504e-04
 Reference value :  1.73505e-04
 Reference value :  1.73507e-04
 Reference value :  1.73507e-04
 Reference value :  1.73509e-04
 Reference value :  1.73511e-04
 Reference value :  1.73520e-04
 Reference value :  1.73660e-04
 Reference value :  1.73750e-04
 Reference value :  1.73750e-04
 Reference value :  1.73750e-04
 Reference value :  1.73751e-04
 Reference value :  1.73751e-04
 Reference value :  1.73752e-04
 Reference value :  1.73754e-04
 Reference value :  1.73754e-04
 Reference value :  1.73756e-04
 Reference value :  1.73758e-04
 Reference value :  1.73758e-04
 Reference value :  1.73761e-04
 Reference value :  1.73768e-04
 Reference value :  1.73808e-04
 Reference value :  1.74000e-04
 Reference value :  1.74000e-04
 Reference value :  1.74000e-04
 Reference value :  1.74000e-04
 Reference value :  1.74001e-04
 Reference value :  1.74002e-04
 Reference value :  1.74003e-04
 Reference value :  1.74004e-04
 Reference value :  1.74004e-04
 Reference value :  1.74006e-04
 Reference value :  1.74007e-04
 Reference value :  1.74010e-04
 Reference value :  1.74011e-04
 Reference value :  1.74013e-04
 Reference value :  1.74014e-04
 Reference value :  1.74018e-04
 Reference value :  1.74020e-04
 Reference value :  1.74023e-04
 Reference value :  1.74029e-04
 Reference value :  1.74035e-04
 Reference value :  1.74038e-04
 Reference value :  1.74041e-04
 Reference value :  1.74054e-04
 Reference value :  1.74090e-04
 Reference value :  1.74167e-04
 Reference value :  1.74250e-04
 Reference value :  1.74250e-04
 Reference value :  1.74250e-04
 Reference value :  1.74250e-04
 Reference value :  1.74251e-04
 Reference value :  1.74252e-04
 Reference value :  1.74253e-04
 Reference value :  1.74254e-04
 Reference value :  1.74257e-04
 Reference value :  1.74265e-04
 Reference value :  1.74340e-04
 Reference value :  1.74500e-04
 Reference value :  1.74500e-04
 Reference value :  1.74500e-04
 Reference value :  1.74501e-04
 Reference value :  1.74502e-04
 Reference value :  1.74503e-04
 Reference value :  1.74504e-04
 Reference value :  1.74506e-04
 Reference value :  1.74508e-04
 Reference value :  1.74512e-04
 Reference value :  1.74529e-04
 Reference value :  1.74645e-04
 Reference value :  1.74750e-04
 Reference value :  1.74750e-04
 Reference value :  1.74750e-04
 Reference value :  1.74751e-04
 Reference value :  1.74751e-04
 Reference value :  1.74753e-04
 Reference value :  1.74754e-04
 Reference value :  1.74757e-04
 Reference value :  1.74759e-04
 Reference value :  1.74784e-04
 Reference value :  1.75000e-04
 Reference value :  1.75000e-04
 Reference value :  1.75000e-04
 Reference value :  1.75000e-04
 Reference value :  1.75001e-04
 Reference value :  1.75002e-04
 Reference value :  1.75004e-04
 Reference value :  1.75005e-04
 Reference value :  1.75006e-04
 Reference value :  1.75008e-04
 Reference value :  1.75011e-04
 Reference value :  1.75013e-04
 Reference value :  1.75016e-04
 Reference value :  1.75018e-04
 Reference value :  1.75026e-04
 Reference value :  1.75037e-04
 Reference value :  1.75044e-04
 Reference value :  1.75054e-04
 Reference value :  1.75087e-04
 Reference value :  1.75250e-04
 Reference value :  1.75250e-04
 Reference value :  1.75250e-04
 Reference value :  1.75250e-04
 Reference value :  1.75251e-04
 Reference value :  1.75251e-04
 Reference value :  1.75253e-04
 Reference value :  1.75254e-04
 Reference value :  1.75258e-04
 Reference value :  1.75285e-04
 Reference value :  1.75500e-04
 Reference value :  1.75500e-04
 Reference value :  1.75500e-04
 Reference value :  1.75500e-04
 Reference value :  1.75501e-04
 Reference value :  1.75502e-04
 Reference value :  1.75504e-04
 Reference value :  1.75506e-04
 Reference value :  1.75507e-04
 Reference value :  1.75509e-04
 Reference value :  1.75515e-04
 Reference value :  1.75660e-04
 Reference value :  1.75750e-04
 Reference value :  1.75750e-04
 Reference value :  1.75750e-04
 Reference value :  1.75751e-04
 Reference value :  1.75752e-04
 Reference value :  1.75754e-04
 Reference value :  1.75755e-04
 Reference value :  1.75758e-04
 Reference value :  1.75759e-04
 Reference value :  1.75768e-04
 Reference value :  1.75808e-04
 Reference value :  1.76000e-04
 Reference value :  1.76000e-04
 Reference value :  1.76000e-04
 Reference value :  1.76000e-04
 Reference value :  1.76001e-04
 Reference value :  1.76002e-04
 Reference value :  1.76003e-04
 Reference value :  1.76004e-04
 Reference value :  1.76006e-04
 Reference value :  1.76008e-04
 Reference value :  1.76011e-04
 Reference value :  1.76013e-04
 Reference value :  1.76014e-04
 Reference value :  1.76017e-04
 Reference value :  1.76019e-04
 Reference value :  1.76028e-04
 Reference value :  1.76049e-04
 Reference value :  1.76098e-04
 Reference value :  1.76179e-04
 Reference value :  1.76250e-04
 Reference value :  1.76250e-04
 Reference value :  1.76250e-04
 Reference value :  1.76251e-04
 Reference value :  1.76253e-04
 Reference value :  1.76254e-04
 Reference value :  1.76257e-04
 Reference value :  1.76261e-04
 Reference value :  1.76304e-04
 Reference value :  1.76500e-04
 Reference value :  1.76500e-04
 Reference value :  1.76500e-04
 Reference value :  1.76500e-04
 Reference value :  1.76501e-04
 Reference value :  1.76502e-04
 Reference value :  1.76504e-04
 Reference value :  1.76506e-04
 Reference value :  1.76507e-04
 Reference value :  1.76509e-04
 Reference value :  1.76512e-04
 Reference value :  1.76548e-04
 Reference value :  1.76750e-04
 Reference value :  1.76750e-04
 Reference value :  1.76750e-04
 Reference value :  1.76750e-04
 Reference value :  1.76751e-04
 Reference value :  1.76751e-04
 Reference value :  1.76752e-04
 Reference value :  1.76754e-04
 Reference value :  1.76755e-04
 Reference value :  1.76757e-04
 Reference value :  1.76758e-04
 Reference value :  1.76761e-04
 Reference value :  1.76765e-04
 Reference value :  1.76787e-04
 Reference value :  1.76923e-04
 Reference value :  1.77000e-04
 Reference value :  1.77000e-04
 Reference value :  1.77000e-04
 Reference value :  1.77000e-04
 Reference value :  1.77001e-04
 Reference value :  1.77002e-04
 Reference value :  1.77003e-04
 Reference value :  1.77004e-04
 Reference value :  1.77006e-04
 Reference value :  1.77007e-04
 Reference value :  1.77010e-04
 Reference value :  1.77011e-04
 Reference value :  1.77012e-04
 Reference value :  1.77014e-04
 Reference value :  1.77016e-04
 Reference value :  1.77018e-04
 Reference value :  1.77022e-04
 Reference value :  1.77030e-04
 Reference value :  1.77087e-04
 Reference value :  1.77151e-04
 Reference value :  1.77250e-04
 Reference value :  1.77250e-04
 Reference value :  1.77250e-04
 Reference value :  1.77250e-04
 Reference value :  1.77251e-04
 Reference value :  1.77251e-04
 Reference value :  1.77252e-04
 Reference value :  1.77254e-04
 Reference value :  1.77254e-04
 Reference value :  1.77256e-04
 Reference value :  1.77259e-04
 Reference value :  1.77272e-04
 Reference value :  1.77404e-04
 Reference value :  1.77500e-04
 Reference value :  1.77500e-04
 Reference value :  1.77500e-04
 Reference value :  1.77502e-04
 Reference value :  1.77503e-04
 Reference value :  1.77505e-04
 Reference value :  1.77507e-04
 Reference value :  1.77507e-04
 Reference value :  1.77509e-04
 Reference value :  1.77512e-04
 Reference value :  1.77548e-04
 Reference value :  1.77750e-04
 Reference value :  1.77750e-04
 Reference value :  1.77750e-04
 Reference value :  1.77750e-04
 Reference value :  1.77750e-04
 Reference value :  1.77751e-04
 Reference value :  1.77751e-04
 Reference value :  1.77752e-04
 Reference value :  1.77754e-04
 Reference value :  1.77754e-04
 Reference value :  1.77756e-04
 Reference value :  1.77758e-04
 Reference value :  1.77759e-04
 Reference value :  1.77775e-04
 Reference value :  1.78000e-04
 Reference value :  1.78000e-04
 Reference value :  1.78000e-04
 Reference value :  1.78000e-04
 Reference value :  1.78000e-04
 Reference value :  1.78001e-04
 Reference value :  1.78002e-04
 Reference value :  1.78003e-04
 Reference value :  1.78004e-04
 Reference value :  1.78006e-04
 Reference value :  1.78007e-04
 Reference value :  1.78009e-04
 Reference value :  1.78011e-04
 Reference value :  1.78015e-04
 Reference value :  1.78019e-04
 Reference value :  1.78032e-04
 Reference value :  1.78047e-04
 Reference value :  1.78092e-04
 Reference value :  1.78250e-04
 Reference value :  1.78250e-04
 Reference value :  1.78252e-04
 Reference value :  1.78254e-04
 Reference value :  1.78258e-04
 Reference value :  1.78265e-04
 Reference value :  1.78296e-04
 Reference value :  1.78500e-04
No. of Data Rows : 26046
ngspice-44 done
