
Note: Compatibility modes selected: hs a


Circuit: ** sch_path: /home/audrey/cace/sar-adc-using-sky130-pdk/runs/run_2025-08-29_17-28-30/parameters/power/run_09/power_consumption.sch

option SCALE: Scale is set to 1e-06 for instance and model parameters
option SCALE: Scale is set to 1e-06 for instance and model parameters
option SCALE: Scale is set to 1e-06 for instance and model parameters
option SCALE: Scale is set to 1e-06 for instance and model parameters
Doing analysis at TEMP = 27.000000 and TNOM = 27.000000

Using KLU as Direct Linear Solver
Operating point simulation skipped by 'uic',
  now using transient initial conditions.
 Reference value :  5.00000e-12
 Reference value :  5.14000e-12
 Reference value :  5.98000e-12
 Reference value :  1.14547e-11
 Reference value :  2.28870e-11
 Reference value :  6.30142e-11
 Reference value :  2.05343e-10
 Reference value :  5.00000e-10
 Reference value :  5.47240e-10
 Reference value :  9.88150e-10
 Reference value :  1.65784e-09
 Reference value :  2.19549e-09
 Reference value :  3.56392e-09
 Reference value :  5.56574e-09
 Reference value :  7.68423e-09
 Reference value :  9.48576e-09
 Reference value :  1.10330e-08
 Reference value :  1.25338e-08
 Reference value :  1.47616e-08
 Reference value :  2.01865e-08
 Reference value :  2.44333e-08
 Reference value :  3.28347e-08
 Reference value :  4.22129e-08
 Reference value :  5.46899e-08
 Reference value :  1.18799e-07
 Reference value :  2.92691e-07
 Reference value :  5.22840e-07
 Reference value :  6.59878e-07
 Reference value :  8.42596e-07
 Reference value :  1.00055e-06
 Reference value :  1.00085e-06
 Reference value :  1.00100e-06
 Reference value :  1.00103e-06
 Reference value :  1.00109e-06
 Reference value :  1.00139e-06
 Reference value :  1.00197e-06
 Reference value :  1.00282e-06
 Reference value :  1.00342e-06
 Reference value :  1.00420e-06
 Reference value :  1.00473e-06
 Reference value :  1.00602e-06
 Reference value :  1.00766e-06
 Reference value :  1.01051e-06
 Reference value :  1.01671e-06
 Reference value :  1.03555e-06
 Reference value :  1.05575e-06
 Reference value :  1.09615e-06
 Reference value :  1.17695e-06
 Reference value :  1.33855e-06
 Reference value :  1.66175e-06
 Reference value :  2.00000e-06
 Reference value :  2.00005e-06
 Reference value :  2.00015e-06
 Reference value :  2.00035e-06
 Reference value :  2.00050e-06
 Reference value :  2.00060e-06
 Reference value :  2.00074e-06
 Reference value :  2.00102e-06
 Reference value :  2.00139e-06
 Reference value :  2.00221e-06
 Reference value :  2.00320e-06
 Reference value :  2.00439e-06
 Reference value :  2.00598e-06
 Reference value :  2.00703e-06
 Reference value :  2.00990e-06
 Reference value :  2.01120e-06
 Reference value :  2.01260e-06
 Reference value :  2.01419e-06
 Reference value :  2.01781e-06
 Reference value :  2.02381e-06
 Reference value :  2.03681e-06
 Reference value :  2.07947e-06
 Reference value :  2.84426e-06
 Reference value :  3.00055e-06
 Reference value :  3.00085e-06
 Reference value :  3.00103e-06
 Reference value :  3.00151e-06
 Reference value :  3.00219e-06
 Reference value :  3.00313e-06
 Reference value :  3.00379e-06
 Reference value :  3.00431e-06
 Reference value :  3.00548e-06
 Reference value :  3.00608e-06
 Reference value :  3.00765e-06
 Reference value :  3.01127e-06
 Reference value :  3.01952e-06
 Reference value :  3.09128e-06
 Reference value :  3.66542e-06
 Reference value :  4.00015e-06
 Reference value :  4.00053e-06
 Reference value :  4.00074e-06
 Reference value :  4.00139e-06
 Reference value :  4.00179e-06
 Reference value :  4.00221e-06
 Reference value :  4.00321e-06
 Reference value :  4.00376e-06
 Reference value :  4.00428e-06
 Reference value :  4.00540e-06
 Reference value :  4.00601e-06
 Reference value :  4.00845e-06
 Reference value :  4.01003e-06
 Reference value :  4.01294e-06
 Reference value :  4.01403e-06
 Reference value :  4.01508e-06
 Reference value :  4.01721e-06
 Reference value :  4.01946e-06
 Reference value :  4.03075e-06
 Reference value :  4.05328e-06
 Reference value :  4.20189e-06
 Reference value :  4.51808e-06
 Reference value :  4.68095e-06
 Reference value :  5.00055e-06
 Reference value :  5.00100e-06
 Reference value :  5.00110e-06
 Reference value :  5.00151e-06
 Reference value :  5.00219e-06
 Reference value :  5.00314e-06
 Reference value :  5.00434e-06
 Reference value :  5.00554e-06
 Reference value :  5.00615e-06
 Reference value :  5.00709e-06
 Reference value :  5.00806e-06
 Reference value :  5.00971e-06
 Reference value :  5.01546e-06
 Reference value :  5.02242e-06
 Reference value :  5.11992e-06
 Reference value :  5.45422e-06
 Reference value :  5.89994e-06
 Reference value :  6.00000e-06
 Reference value :  6.00015e-06
 Reference value :  6.00050e-06
 Reference value :  6.00060e-06
 Reference value :  6.00102e-06
 Reference value :  6.00139e-06
 Reference value :  6.00221e-06
 Reference value :  6.00320e-06
 Reference value :  6.00440e-06
 Reference value :  6.00500e-06
 Reference value :  6.00598e-06
 Reference value :  6.00682e-06
 Reference value :  6.00874e-06
 Reference value :  6.01094e-06
 Reference value :  6.01825e-06
 Reference value :  6.10253e-06
 Reference value :  6.34601e-06
 Reference value :  7.00050e-06
 Reference value :  7.00085e-06
 Reference value :  7.00103e-06
 Reference value :  7.00151e-06
 Reference value :  7.00219e-06
 Reference value :  7.00314e-06
 Reference value :  7.00431e-06
 Reference value :  7.00547e-06
 Reference value :  7.00682e-06
 Reference value :  7.01124e-06
 Reference value :  7.04986e-06
 Reference value :  7.17167e-06
 Reference value :  8.00000e-06
 Reference value :  8.00035e-06
 Reference value :  8.00053e-06
 Reference value :  8.00074e-06
 Reference value :  8.00139e-06
 Reference value :  8.00179e-06
 Reference value :  8.00221e-06
 Reference value :  8.00321e-06
 Reference value :  8.00428e-06
 Reference value :  8.00540e-06
 Reference value :  8.00663e-06
 Reference value :  8.01003e-06
 Reference value :  8.01294e-06
 Reference value :  8.01403e-06
 Reference value :  8.01621e-06
 Reference value :  8.01828e-06
 Reference value :  8.01946e-06
 Reference value :  8.02569e-06
 Reference value :  8.03075e-06
 Reference value :  8.07761e-06
 Reference value :  8.21444e-06
 Reference value :  8.37414e-06
 Reference value :  8.75922e-06
 Reference value :  9.00055e-06
 Reference value :  9.00085e-06
 Reference value :  9.00103e-06
 Reference value :  9.00151e-06
 Reference value :  9.00219e-06
 Reference value :  9.00314e-06
 Reference value :  9.00434e-06
 Reference value :  9.00554e-06
 Reference value :  9.00615e-06
 Reference value :  9.00709e-06
 Reference value :  9.00970e-06
 Reference value :  9.02240e-06
 Reference value :  9.23097e-06
 Reference value :  1.00000e-05
 Reference value :  1.00003e-05
 Reference value :  1.00005e-05
 Reference value :  1.00010e-05
 Reference value :  1.00014e-05
 Reference value :  1.00022e-05
 Reference value :  1.00032e-05
 Reference value :  1.00044e-05
 Reference value :  1.00060e-05
 Reference value :  1.00068e-05
 Reference value :  1.00087e-05
 Reference value :  1.00109e-05
 Reference value :  1.00182e-05
 Reference value :  1.01016e-05
 Reference value :  1.06631e-05
 Reference value :  1.10006e-05
 Reference value :  1.10010e-05
 Reference value :  1.10015e-05
 Reference value :  1.10022e-05
 Reference value :  1.10031e-05
 Reference value :  1.10043e-05
 Reference value :  1.10055e-05
 Reference value :  1.10068e-05
 Reference value :  1.10112e-05
 Reference value :  1.10295e-05
 Reference value :  1.11715e-05
 Reference value :  1.20000e-05
 Reference value :  1.20005e-05
 Reference value :  1.20010e-05
 Reference value :  1.20018e-05
 Reference value :  1.20027e-05
 Reference value :  1.20043e-05
 Reference value :  1.20054e-05
 Reference value :  1.20060e-05
 Reference value :  1.20084e-05
 Reference value :  1.20116e-05
 Reference value :  1.20129e-05
 Reference value :  1.20151e-05
 Reference value :  1.20172e-05
 Reference value :  1.20183e-05
 Reference value :  1.20210e-05
 Reference value :  1.20307e-05
 Reference value :  1.20532e-05
 Reference value :  1.21189e-05
 Reference value :  1.21853e-05
 Reference value :  1.22518e-05
 Reference value :  1.25685e-05
 Reference value :  1.30005e-05
 Reference value :  1.30009e-05
 Reference value :  1.30010e-05
 Reference value :  1.30015e-05
 Reference value :  1.30022e-05
 Reference value :  1.30031e-05
 Reference value :  1.30043e-05
 Reference value :  1.30050e-05
 Reference value :  1.30055e-05
 Reference value :  1.30071e-05
 Reference value :  1.30097e-05
 Reference value :  1.30224e-05
 Reference value :  1.30640e-05
 Reference value :  1.34529e-05
 Reference value :  1.40000e-05
 Reference value :  1.40002e-05
 Reference value :  1.40005e-05
 Reference value :  1.40006e-05
 Reference value :  1.40010e-05
 Reference value :  1.40014e-05
 Reference value :  1.40022e-05
 Reference value :  1.40032e-05
 Reference value :  1.40044e-05
 Reference value :  1.40060e-05
 Reference value :  1.40068e-05
 Reference value :  1.40087e-05
 Reference value :  1.40123e-05
 Reference value :  1.40247e-05
 Reference value :  1.41010e-05
 Reference value :  1.50005e-05
 Reference value :  1.50007e-05
 Reference value :  1.50010e-05
 Reference value :  1.50010e-05
 Reference value :  1.50012e-05
 Reference value :  1.50018e-05
 Reference value :  1.50022e-05
 Reference value :  1.50031e-05
 Reference value :  1.50038e-05
 Reference value :  1.50043e-05
 Reference value :  1.50055e-05
 Reference value :  1.50061e-05
 Reference value :  1.50068e-05
 Reference value :  1.50076e-05
 Reference value :  1.50112e-05
 Reference value :  1.50194e-05
 Reference value :  1.50498e-05
 Reference value :  1.51715e-05
 Reference value :  1.56580e-05
 Reference value :  1.60000e-05
 Reference value :  1.60001e-05
 Reference value :  1.60005e-05
 Reference value :  1.60006e-05
 Reference value :  1.60014e-05
 Reference value :  1.60022e-05
 Reference value :  1.60032e-05
 Reference value :  1.60043e-05
 Reference value :  1.60054e-05
 Reference value :  1.60060e-05
 Reference value :  1.60074e-05
 Reference value :  1.60100e-05
 Reference value :  1.60116e-05
 Reference value :  1.60133e-05
 Reference value :  1.60145e-05
 Reference value :  1.60156e-05
 Reference value :  1.60168e-05
 Reference value :  1.60193e-05
 Reference value :  1.60229e-05
 Reference value :  1.60296e-05
 Reference value :  1.60366e-05
 Reference value :  1.60437e-05
 Reference value :  1.60578e-05
 Reference value :  1.60645e-05
 Reference value :  1.60798e-05
 Reference value :  1.60869e-05
 Reference value :  1.60940e-05
 Reference value :  1.60988e-05
 Reference value :  1.61084e-05
 Reference value :  1.61170e-05
 Reference value :  1.62020e-05
 Reference value :  1.63473e-05
 Reference value :  1.68037e-05
 Reference value :  1.70007e-05
 Reference value :  1.70010e-05
 Reference value :  1.70011e-05
 Reference value :  1.70012e-05
 Reference value :  1.70014e-05
 Reference value :  1.70021e-05
 Reference value :  1.70026e-05
 Reference value :  1.70031e-05
 Reference value :  1.70038e-05
 Reference value :  1.70050e-05
 Reference value :  1.70062e-05
 Reference value :  1.70078e-05
 Reference value :  1.70117e-05
 Reference value :  1.70210e-05
 Reference value :  1.70553e-05
 Reference value :  1.73707e-05
 Reference value :  1.80001e-05
 Reference value :  1.80004e-05
 Reference value :  1.80005e-05
 Reference value :  1.80007e-05
 Reference value :  1.80020e-05
 Reference value :  1.80025e-05
 Reference value :  1.80035e-05
 Reference value :  1.80047e-05
 Reference value :  1.80062e-05
 Reference value :  1.80068e-05
 Reference value :  1.80086e-05
 Reference value :  1.80095e-05
 Reference value :  1.80115e-05
 Reference value :  1.80151e-05
 Reference value :  1.80266e-05
 Reference value :  1.80679e-05
 Reference value :  1.84408e-05
 Reference value :  1.90005e-05
 Reference value :  1.90007e-05
 Reference value :  1.90009e-05
 Reference value :  1.90010e-05
 Reference value :  1.90010e-05
 Reference value :  1.90012e-05
 Reference value :  1.90014e-05
 Reference value :  1.90021e-05
 Reference value :  1.90031e-05
 Reference value :  1.90045e-05
 Reference value :  1.90050e-05
 Reference value :  1.90071e-05
 Reference value :  1.90079e-05
 Reference value :  1.90118e-05
 Reference value :  1.90337e-05
 Reference value :  1.91925e-05
 Reference value :  2.00001e-05
 Reference value :  2.00004e-05
 Reference value :  2.00005e-05
 Reference value :  2.00007e-05
 Reference value :  2.00010e-05
 Reference value :  2.00020e-05
 Reference value :  2.00030e-05
 Reference value :  2.00035e-05
 Reference value :  2.00046e-05
 Reference value :  2.00056e-05
 Reference value :  2.00069e-05
 Reference value :  2.00090e-05
 Reference value :  2.00106e-05
 Reference value :  2.00120e-05
 Reference value :  2.00146e-05
 Reference value :  2.00155e-05
 Reference value :  2.00165e-05
 Reference value :  2.00176e-05
 Reference value :  2.00190e-05
 Reference value :  2.00223e-05
 Reference value :  2.00294e-05
 Reference value :  2.00352e-05
 Reference value :  2.00407e-05
 Reference value :  2.00454e-05
 Reference value :  2.00563e-05
 Reference value :  2.00687e-05
 Reference value :  2.00857e-05
 Reference value :  2.00953e-05
 Reference value :  2.01055e-05
 Reference value :  2.01123e-05
 Reference value :  2.01182e-05
 Reference value :  2.01394e-05
 Reference value :  2.01691e-05
 Reference value :  2.02304e-05
 Reference value :  2.02822e-05
 Reference value :  2.06554e-05
 Reference value :  2.10005e-05
 Reference value :  2.10006e-05
 Reference value :  2.10010e-05
 Reference value :  2.10010e-05
 Reference value :  2.10011e-05
 Reference value :  2.10014e-05
 Reference value :  2.10021e-05
 Reference value :  2.10026e-05
 Reference value :  2.10031e-05
 Reference value :  2.10045e-05
 Reference value :  2.10050e-05
 Reference value :  2.10057e-05
 Reference value :  2.10063e-05
 Reference value :  2.10071e-05
 Reference value :  2.10079e-05
 Reference value :  2.10152e-05
 Reference value :  2.10336e-05
 Reference value :  2.11045e-05
 Reference value :  2.17666e-05
 Reference value :  2.20000e-05
 Reference value :  2.20004e-05
 Reference value :  2.20005e-05
 Reference value :  2.20007e-05
 Reference value :  2.20015e-05
 Reference value :  2.20020e-05
 Reference value :  2.20025e-05
 Reference value :  2.20030e-05
 Reference value :  2.20035e-05
 Reference value :  2.20047e-05
 Reference value :  2.20053e-05
 Reference value :  2.20068e-05
 Reference value :  2.20086e-05
 Reference value :  2.20095e-05
 Reference value :  2.20115e-05
 Reference value :  2.20267e-05
 Reference value :  2.22335e-05
 Reference value :  2.30005e-05
 Reference value :  2.30010e-05
 Reference value :  2.30014e-05
 Reference value :  2.30026e-05
 Reference value :  2.30045e-05
 Reference value :  2.30056e-05
 Reference value :  2.30079e-05
 Reference value :  2.30213e-05
 Reference value :  2.31926e-05
 Reference value :  2.40001e-05
 Reference value :  2.40005e-05
 Reference value :  2.40007e-05
 Reference value :  2.40015e-05
 Reference value :  2.40030e-05
 Reference value :  2.40041e-05
 Reference value :  2.40056e-05
 Reference value :  2.40076e-05
 Reference value :  2.40106e-05
 Reference value :  2.40120e-05
 Reference value :  2.40146e-05
 Reference value :  2.40165e-05
 Reference value :  2.40203e-05
 Reference value :  2.40295e-05
 Reference value :  2.40375e-05
 Reference value :  2.40491e-05
 Reference value :  2.40765e-05
 Reference value :  2.41257e-05
 Reference value :  2.41520e-05
 Reference value :  2.42199e-05
 Reference value :  2.46860e-05
 Reference value :  2.50006e-05
 Reference value :  2.50010e-05
 Reference value :  2.50014e-05
 Reference value :  2.50026e-05
 Reference value :  2.50038e-05
 Reference value :  2.50045e-05
 Reference value :  2.50050e-05
 Reference value :  2.50071e-05
 Reference value :  2.50152e-05
 Reference value :  2.50572e-05
 Reference value :  2.53870e-05
 Reference value :  2.60001e-05
 Reference value :  2.60005e-05
 Reference value :  2.60007e-05
 Reference value :  2.60015e-05
 Reference value :  2.60025e-05
 Reference value :  2.60035e-05
 Reference value :  2.60047e-05
 Reference value :  2.60062e-05
 Reference value :  2.60068e-05
 Reference value :  2.60086e-05
 Reference value :  2.60104e-05
 Reference value :  2.60115e-05
 Reference value :  2.60151e-05
 Reference value :  2.60267e-05
 Reference value :  2.61233e-05
 Reference value :  2.68864e-05
 Reference value :  2.70006e-05
 Reference value :  2.70009e-05
 Reference value :  2.70010e-05
 Reference value :  2.70014e-05
 Reference value :  2.70026e-05
 Reference value :  2.70038e-05
 Reference value :  2.70050e-05
 Reference value :  2.70063e-05
 Reference value :  2.70079e-05
 Reference value :  2.70152e-05
 Reference value :  2.70566e-05
 Reference value :  2.71925e-05
 Reference value :  2.80000e-05
 Reference value :  2.80001e-05
 Reference value :  2.80005e-05
 Reference value :  2.80006e-05
 Reference value :  2.80010e-05
 Reference value :  2.80020e-05
 Reference value :  2.80025e-05
 Reference value :  2.80035e-05
 Reference value :  2.80046e-05
 Reference value :  2.80056e-05
 Reference value :  2.80069e-05
 Reference value :  2.80090e-05
 Reference value :  2.80106e-05
 Reference value :  2.80120e-05
 Reference value :  2.80146e-05
 Reference value :  2.80165e-05
 Reference value :  2.80190e-05
 Reference value :  2.80241e-05
 Reference value :  2.80312e-05
 Reference value :  2.80349e-05
 Reference value :  2.80377e-05
 Reference value :  2.80438e-05
 Reference value :  2.80730e-05
 Reference value :  2.81514e-05
 Reference value :  2.82453e-05
 Reference value :  2.83011e-05
 Reference value :  2.85291e-05
 Reference value :  2.90006e-05
 Reference value :  2.90009e-05
 Reference value :  2.90010e-05
 Reference value :  2.90011e-05
 Reference value :  2.90014e-05
 Reference value :  2.90021e-05
 Reference value :  2.90026e-05
 Reference value :  2.90031e-05
 Reference value :  2.90038e-05
 Reference value :  2.90045e-05
 Reference value :  2.90050e-05
 Reference value :  2.90057e-05
 Reference value :  2.90063e-05
 Reference value :  2.90071e-05
 Reference value :  2.90118e-05
 Reference value :  2.90213e-05
 Reference value :  2.90570e-05
 Reference value :  2.91977e-05
 Reference value :  3.00000e-05
 Reference value :  3.00002e-05
 Reference value :  3.00004e-05
 Reference value :  3.00006e-05
 Reference value :  3.00007e-05
 Reference value :  3.00010e-05
 Reference value :  3.00015e-05
 Reference value :  3.00025e-05
 Reference value :  3.00035e-05
 Reference value :  3.00053e-05
 Reference value :  3.00068e-05
 Reference value :  3.00086e-05
 Reference value :  3.00095e-05
 Reference value :  3.00104e-05
 Reference value :  3.00115e-05
 Reference value :  3.00127e-05
 Reference value :  3.00151e-05
 Reference value :  3.00266e-05
 Reference value :  3.00411e-05
 Reference value :  3.01208e-05
 Reference value :  3.04396e-05
 Reference value :  3.10005e-05
 Reference value :  3.10005e-05
 Reference value :  3.10008e-05
 Reference value :  3.10010e-05
 Reference value :  3.10012e-05
 Reference value :  3.10014e-05
 Reference value :  3.10021e-05
 Reference value :  3.10031e-05
 Reference value :  3.10045e-05
 Reference value :  3.10050e-05
 Reference value :  3.10063e-05
 Reference value :  3.10071e-05
 Reference value :  3.10079e-05
 Reference value :  3.10118e-05
 Reference value :  3.10213e-05
 Reference value :  3.11018e-05
 Reference value :  3.11926e-05
 Reference value :  3.13741e-05
 Reference value :  3.20000e-05
 Reference value :  3.20000e-05
 Reference value :  3.20001e-05
 Reference value :  3.20005e-05
 Reference value :  3.20006e-05
 Reference value :  3.20007e-05
 Reference value :  3.20010e-05
 Reference value :  3.20015e-05
 Reference value :  3.20025e-05
 Reference value :  3.20030e-05
 Reference value :  3.20035e-05
 Reference value :  3.20046e-05
 Reference value :  3.20052e-05
 Reference value :  3.20056e-05
 Reference value :  3.20062e-05
 Reference value :  3.20069e-05
 Reference value :  3.20076e-05
 Reference value :  3.20083e-05
 Reference value :  3.20091e-05
 Reference value :  3.20101e-05
 Reference value :  3.20173e-05
 Reference value :  3.20695e-05
 Reference value :  3.24815e-05
 Reference value :  3.30006e-05
 Reference value :  3.30009e-05
 Reference value :  3.30010e-05
 Reference value :  3.30012e-05
 Reference value :  3.30015e-05
 Reference value :  3.30017e-05
 Reference value :  3.30027e-05
 Reference value :  3.30039e-05
 Reference value :  3.30046e-05
 Reference value :  3.30065e-05
 Reference value :  3.30090e-05
 Reference value :  3.30134e-05
 Reference value :  3.30780e-05
 Reference value :  3.32844e-05
 Reference value :  3.40000e-05
No. of Data Rows : 1237
ngspice-44 done
