
Note: Compatibility modes selected: hs a


Circuit: ** sch_path: /home/ece/cace/sar-adc-using-sky130-pdk/runs/run_2025-09-09_21-23-34/parameters/dnl/run_0/sar_output_dnl.sch

option SCALE: Scale is set to 1e-06 for instance and model parameters
option SCALE: Scale is set to 1e-06 for instance and model parameters
option SCALE: Scale is set to 1e-06 for instance and model parameters
option SCALE: Scale is set to 1e-06 for instance and model parameters
Doing analysis at TEMP = 27.000000 and TNOM = 27.000000

Using KLU as Direct Linear Solver
Operating point simulation skipped by 'uic',
  now using transient initial conditions.
 Reference value :  1.00000e-12
 Reference value :  1.02772e-12
 Reference value :  1.08316e-12
 Reference value :  1.19404e-12
 Reference value :  1.33846e-12
 Reference value :  1.62729e-12
 Reference value :  2.20497e-12
 Reference value :  3.05063e-12
 Reference value :  3.95589e-12
 Reference value :  5.17277e-12
 Reference value :  6.90373e-12
 Reference value :  1.02178e-11
 Reference value :  1.39118e-11
 Reference value :  2.08094e-11
 Reference value :  2.75822e-11
 Reference value :  3.66832e-11
 Reference value :  4.77244e-11
 Reference value :  6.48744e-11
 Reference value :  8.52666e-11
 Reference value :  1.00000e-10
 Reference value :  1.01225e-10
 Reference value :  1.03675e-10
 Reference value :  1.08575e-10
 Reference value :  1.18376e-10
 Reference value :  1.37976e-10
 Reference value :  1.77177e-10
 Reference value :  2.55580e-10
 Reference value :  4.07444e-10
 Reference value :  5.70649e-10
 Reference value :  8.37287e-10
 Reference value :  1.19478e-09
 Reference value :  1.62035e-09
 Reference value :  2.27243e-09
 Reference value :  2.94300e-09
 Reference value :  4.01241e-09
 Reference value :  4.83920e-09
 Reference value :  5.71201e-09
 Reference value :  6.95761e-09
 Reference value :  8.14346e-09
 Reference value :  9.52605e-09
 Reference value :  1.04410e-08
 Reference value :  1.12974e-08
 Reference value :  1.22593e-08
 Reference value :  1.32922e-08
 Reference value :  1.53580e-08
 Reference value :  1.82312e-08
 Reference value :  2.21160e-08
 Reference value :  2.61356e-08
 Reference value :  2.96420e-08
 Reference value :  3.32865e-08
 Reference value :  3.64522e-08
 Reference value :  3.98126e-08
 Reference value :  4.48792e-08
 Reference value :  5.22561e-08
 Reference value :  6.52638e-08
 Reference value :  8.67378e-08
 Reference value :  1.29686e-07
 Reference value :  1.90151e-07
 Reference value :  2.50100e-07
 Reference value :  2.50110e-07
 Reference value :  2.50130e-07
 Reference value :  2.50170e-07
 Reference value :  2.50200e-07
 Reference value :  2.50201e-07
 Reference value :  2.50202e-07
 Reference value :  2.50204e-07
 Reference value :  2.50208e-07
 Reference value :  2.50216e-07
 Reference value :  2.50233e-07
 Reference value :  2.50267e-07
 Reference value :  2.50334e-07
 Reference value :  2.50416e-07
 Reference value :  2.50578e-07
 Reference value :  2.50740e-07
 Reference value :  2.51064e-07
 Reference value :  2.51433e-07
 Reference value :  2.52000e-07
 Reference value :  2.52605e-07
 Reference value :  2.53305e-07
 Reference value :  2.54251e-07
 Reference value :  2.55267e-07
 Reference value :  2.56209e-07
 Reference value :  2.57137e-07
 Reference value :  2.58161e-07
 Reference value :  2.59137e-07
 Reference value :  2.60806e-07
 Reference value :  2.63151e-07
 Reference value :  2.65566e-07
 Reference value :  2.69724e-07
 Reference value :  2.75757e-07
 Reference value :  2.87821e-07
 Reference value :  3.11951e-07
 Reference value :  3.56893e-07
 Reference value :  4.46777e-07
 Reference value :  5.00000e-07
 Reference value :  5.00010e-07
 Reference value :  5.00030e-07
 Reference value :  5.00070e-07
 Reference value :  5.00100e-07
 Reference value :  5.00104e-07
 Reference value :  5.00113e-07
 Reference value :  5.00130e-07
 Reference value :  5.00164e-07
 Reference value :  5.00231e-07
 Reference value :  5.00367e-07
 Reference value :  5.00555e-07
 Reference value :  5.00931e-07
 Reference value :  5.01441e-07
 Reference value :  5.01988e-07
 Reference value :  5.02572e-07
 Reference value :  5.03299e-07
 Reference value :  5.03988e-07
 Reference value :  5.04868e-07
 Reference value :  5.05732e-07
 Reference value :  5.06712e-07
 Reference value :  5.07962e-07
 Reference value :  5.09473e-07
 Reference value :  5.11506e-07
 Reference value :  5.13937e-07
 Reference value :  5.15835e-07
 Reference value :  5.17886e-07
 Reference value :  5.20499e-07
 Reference value :  5.23122e-07
 Reference value :  5.25907e-07
 Reference value :  5.31216e-07
 Reference value :  5.38400e-07
 Reference value :  5.48666e-07
 Reference value :  5.69196e-07
 Reference value :  5.99926e-07
 Reference value :  6.61386e-07
 Reference value :  7.50100e-07
 Reference value :  7.50110e-07
 Reference value :  7.50130e-07
 Reference value :  7.50170e-07
 Reference value :  7.50200e-07
 Reference value :  7.50201e-07
 Reference value :  7.50202e-07
 Reference value :  7.50205e-07
 Reference value :  7.50211e-07
 Reference value :  7.50223e-07
 Reference value :  7.50247e-07
 Reference value :  7.50295e-07
 Reference value :  7.50390e-07
 Reference value :  7.50580e-07
 Reference value :  7.50956e-07
 Reference value :  7.51478e-07
 Reference value :  7.52136e-07
 Reference value :  7.52787e-07
 Reference value :  7.53536e-07
 Reference value :  7.54575e-07
 Reference value :  7.55319e-07
 Reference value :  7.56167e-07
 Reference value :  7.56918e-07
 Reference value :  7.57752e-07
 Reference value :  7.58784e-07
 Reference value :  7.59912e-07
 Reference value :  7.62169e-07
 Reference value :  7.64635e-07
 Reference value :  7.68698e-07
 Reference value :  7.74006e-07
 Reference value :  7.84623e-07
 Reference value :  8.05856e-07
 Reference value :  8.48322e-07
 Reference value :  9.33255e-07
 Reference value :  1.00000e-06
 Reference value :  1.00001e-06
 Reference value :  1.00003e-06
 Reference value :  1.00007e-06
 Reference value :  1.00010e-06
 Reference value :  1.00010e-06
 Reference value :  1.00011e-06
 Reference value :  1.00013e-06
 Reference value :  1.00016e-06
 Reference value :  1.00023e-06
 Reference value :  1.00037e-06
 Reference value :  1.00055e-06
 Reference value :  1.00093e-06
 Reference value :  1.00144e-06
 Reference value :  1.00198e-06
 Reference value :  1.00256e-06
 Reference value :  1.00321e-06
 Reference value :  1.00388e-06
 Reference value :  1.00467e-06
 Reference value :  1.00549e-06
 Reference value :  1.00635e-06
 Reference value :  1.00731e-06
 Reference value :  1.00811e-06
 Reference value :  1.00905e-06
 Reference value :  1.00998e-06
 Reference value :  1.01119e-06
 Reference value :  1.01294e-06
 Reference value :  1.01554e-06
 Reference value :  1.01799e-06
 Reference value :  1.02017e-06
 Reference value :  1.02200e-06
 Reference value :  1.02397e-06
 Reference value :  1.02579e-06
 Reference value :  1.02762e-06
 Reference value :  1.02996e-06
 Reference value :  1.03217e-06
 Reference value :  1.03521e-06
 Reference value :  1.03941e-06
 Reference value :  1.04517e-06
 Reference value :  1.05440e-06
 Reference value :  1.06831e-06
 Reference value :  1.08301e-06
 Reference value :  1.09540e-06
 Reference value :  1.10767e-06
 Reference value :  1.11677e-06
 Reference value :  1.12628e-06
 Reference value :  1.13391e-06
 Reference value :  1.14157e-06
 Reference value :  1.14868e-06
 Reference value :  1.15608e-06
 Reference value :  1.17089e-06
 Reference value :  1.18694e-06
 Reference value :  1.21446e-06
 Reference value :  1.25010e-06
 Reference value :  1.25011e-06
 Reference value :  1.25013e-06
 Reference value :  1.25017e-06
 Reference value :  1.25020e-06
 Reference value :  1.25020e-06
 Reference value :  1.25020e-06
 Reference value :  1.25021e-06
 Reference value :  1.25021e-06
 Reference value :  1.25022e-06
 Reference value :  1.25025e-06
 Reference value :  1.25030e-06
 Reference value :  1.25039e-06
 Reference value :  1.25059e-06
 Reference value :  1.25093e-06
 Reference value :  1.25147e-06
 Reference value :  1.25211e-06
 Reference value :  1.25276e-06
 Reference value :  1.25350e-06
 Reference value :  1.25453e-06
 Reference value :  1.25525e-06
 Reference value :  1.25606e-06
 Reference value :  1.25699e-06
 Reference value :  1.25794e-06
 Reference value :  1.25916e-06
 Reference value :  1.26129e-06
 Reference value :  1.26336e-06
 Reference value :  1.26676e-06
 Reference value :  1.27092e-06
 Reference value :  1.27923e-06
 Reference value :  1.29584e-06
 Reference value :  1.32562e-06
 Reference value :  1.38516e-06
 Reference value :  1.50000e-06
 Reference value :  1.50001e-06
 Reference value :  1.50003e-06
 Reference value :  1.50007e-06
 Reference value :  1.50010e-06
 Reference value :  1.50010e-06
 Reference value :  1.50011e-06
 Reference value :  1.50013e-06
 Reference value :  1.50016e-06
 Reference value :  1.50023e-06
 Reference value :  1.50037e-06
 Reference value :  1.50055e-06
 Reference value :  1.50091e-06
 Reference value :  1.50142e-06
 Reference value :  1.50197e-06
 Reference value :  1.50251e-06
 Reference value :  1.50321e-06
 Reference value :  1.50385e-06
 Reference value :  1.50463e-06
 Reference value :  1.50544e-06
 Reference value :  1.50635e-06
 Reference value :  1.50758e-06
 Reference value :  1.50880e-06
 Reference value :  1.51013e-06
 Reference value :  1.51163e-06
 Reference value :  1.51310e-06
 Reference value :  1.51460e-06
 Reference value :  1.51619e-06
 Reference value :  1.51783e-06
 Reference value :  1.51965e-06
 Reference value :  1.52329e-06
 Reference value :  1.53056e-06
 Reference value :  1.54287e-06
 Reference value :  1.56747e-06
 Reference value :  1.61669e-06
 Reference value :  1.71512e-06
 Reference value :  1.75010e-06
 Reference value :  1.75011e-06
 Reference value :  1.75013e-06
 Reference value :  1.75017e-06
 Reference value :  1.75020e-06
 Reference value :  1.75020e-06
 Reference value :  1.75020e-06
 Reference value :  1.75021e-06
 Reference value :  1.75021e-06
 Reference value :  1.75022e-06
 Reference value :  1.75025e-06
 Reference value :  1.75029e-06
 Reference value :  1.75039e-06
 Reference value :  1.75058e-06
 Reference value :  1.75091e-06
 Reference value :  1.75146e-06
 Reference value :  1.75208e-06
 Reference value :  1.75275e-06
 Reference value :  1.75348e-06
 Reference value :  1.75451e-06
 Reference value :  1.75525e-06
 Reference value :  1.75610e-06
 Reference value :  1.75684e-06
 Reference value :  1.75767e-06
 Reference value :  1.75868e-06
 Reference value :  1.75980e-06
 Reference value :  1.76095e-06
 Reference value :  1.76261e-06
 Reference value :  1.76449e-06
 Reference value :  1.76700e-06
 Reference value :  1.77024e-06
 Reference value :  1.77488e-06
 Reference value :  1.78417e-06
 Reference value :  1.80075e-06
 Reference value :  1.83391e-06
 Reference value :  1.90022e-06
 Reference value :  2.00000e-06
 Reference value :  2.00001e-06
 Reference value :  2.00003e-06
 Reference value :  2.00007e-06
 Reference value :  2.00010e-06
 Reference value :  2.00010e-06
 Reference value :  2.00011e-06
 Reference value :  2.00013e-06
 Reference value :  2.00016e-06
 Reference value :  2.00023e-06
 Reference value :  2.00037e-06
 Reference value :  2.00054e-06
 Reference value :  2.00090e-06
 Reference value :  2.00141e-06
 Reference value :  2.00196e-06
 Reference value :  2.00255e-06
 Reference value :  2.00319e-06
 Reference value :  2.00387e-06
 Reference value :  2.00463e-06
 Reference value :  2.00544e-06
 Reference value :  2.00621e-06
 Reference value :  2.00702e-06
 Reference value :  2.00787e-06
 Reference value :  2.00875e-06
 Reference value :  2.00965e-06
 Reference value :  2.01103e-06
 Reference value :  2.01234e-06
 Reference value :  2.01426e-06
 Reference value :  2.01622e-06
 Reference value :  2.01808e-06
 Reference value :  2.02011e-06
 Reference value :  2.02175e-06
 Reference value :  2.02354e-06
 Reference value :  2.02526e-06
 Reference value :  2.02703e-06
 Reference value :  2.02922e-06
 Reference value :  2.03122e-06
 Reference value :  2.03442e-06
 Reference value :  2.03849e-06
 Reference value :  2.04651e-06
 Reference value :  2.06098e-06
 Reference value :  2.08662e-06
 Reference value :  2.13261e-06
 Reference value :  2.18061e-06
 Reference value :  2.22703e-06
 Reference value :  2.25010e-06
 Reference value :  2.25011e-06
 Reference value :  2.25013e-06
 Reference value :  2.25017e-06
 Reference value :  2.25020e-06
 Reference value :  2.25020e-06
 Reference value :  2.25020e-06
 Reference value :  2.25021e-06
 Reference value :  2.25021e-06
 Reference value :  2.25022e-06
 Reference value :  2.25025e-06
 Reference value :  2.25030e-06
 Reference value :  2.25039e-06
 Reference value :  2.25059e-06
 Reference value :  2.25093e-06
 Reference value :  2.25146e-06
 Reference value :  2.25210e-06
 Reference value :  2.25276e-06
 Reference value :  2.25350e-06
 Reference value :  2.25452e-06
 Reference value :  2.25526e-06
 Reference value :  2.25611e-06
 Reference value :  2.25700e-06
 Reference value :  2.25792e-06
 Reference value :  2.25921e-06
 Reference value :  2.26103e-06
 Reference value :  2.26321e-06
 Reference value :  2.26639e-06
 Reference value :  2.27064e-06
 Reference value :  2.27915e-06
 Reference value :  2.29616e-06
 Reference value :  2.32567e-06
 Reference value :  2.36011e-06
 Reference value :  2.41908e-06
 Reference value :  2.48252e-06
 Reference value :  2.50000e-06
 Reference value :  2.50001e-06
 Reference value :  2.50003e-06
 Reference value :  2.50007e-06
 Reference value :  2.50010e-06
 Reference value :  2.50010e-06
 Reference value :  2.50011e-06
 Reference value :  2.50013e-06
 Reference value :  2.50016e-06
 Reference value :  2.50023e-06
 Reference value :  2.50037e-06
 Reference value :  2.50055e-06
 Reference value :  2.50091e-06
 Reference value :  2.50142e-06
 Reference value :  2.50197e-06
 Reference value :  2.50255e-06
 Reference value :  2.50320e-06
 Reference value :  2.50387e-06
 Reference value :  2.50464e-06
 Reference value :  2.50546e-06
 Reference value :  2.50637e-06
 Reference value :  2.50756e-06
 Reference value :  2.50880e-06
 Reference value :  2.51007e-06
 Reference value :  2.51146e-06
 Reference value :  2.51302e-06
 Reference value :  2.51459e-06
 Reference value :  2.51618e-06
 Reference value :  2.51785e-06
 Reference value :  2.51969e-06
 Reference value :  2.52174e-06
 Reference value :  2.52420e-06
 Reference value :  2.52699e-06
 Reference value :  2.53257e-06
 Reference value :  2.54310e-06
 Reference value :  2.55422e-06
 Reference value :  2.56442e-06
 Reference value :  2.57549e-06
 Reference value :  2.58652e-06
 Reference value :  2.60477e-06
 Reference value :  2.62776e-06
 Reference value :  2.66715e-06
 Reference value :  2.69787e-06
 Reference value :  2.73397e-06
 Reference value :  2.75010e-06
 Reference value :  2.75011e-06
 Reference value :  2.75013e-06
 Reference value :  2.75017e-06
 Reference value :  2.75020e-06
 Reference value :  2.75020e-06
 Reference value :  2.75020e-06
 Reference value :  2.75021e-06
 Reference value :  2.75021e-06
 Reference value :  2.75022e-06
 Reference value :  2.75025e-06
 Reference value :  2.75029e-06
 Reference value :  2.75039e-06
 Reference value :  2.75058e-06
 Reference value :  2.75091e-06
 Reference value :  2.75145e-06
 Reference value :  2.75208e-06
 Reference value :  2.75275e-06
 Reference value :  2.75348e-06
 Reference value :  2.75450e-06
 Reference value :  2.75525e-06
 Reference value :  2.75611e-06
 Reference value :  2.75686e-06
 Reference value :  2.75769e-06
 Reference value :  2.75870e-06
 Reference value :  2.75983e-06
 Reference value :  2.76096e-06
 Reference value :  2.76262e-06
 Reference value :  2.76452e-06
 Reference value :  2.76703e-06
 Reference value :  2.77026e-06
 Reference value :  2.77490e-06
 Reference value :  2.78418e-06
 Reference value :  2.80035e-06
 Reference value :  2.83268e-06
 Reference value :  2.89736e-06
 Reference value :  3.00000e-06
 Reference value :  3.00001e-06
 Reference value :  3.00003e-06
 Reference value :  3.00007e-06
 Reference value :  3.00010e-06
 Reference value :  3.00010e-06
 Reference value :  3.00011e-06
 Reference value :  3.00013e-06
 Reference value :  3.00016e-06
 Reference value :  3.00023e-06
 Reference value :  3.00037e-06
 Reference value :  3.00054e-06
 Reference value :  3.00090e-06
 Reference value :  3.00141e-06
 Reference value :  3.00196e-06
 Reference value :  3.00255e-06
 Reference value :  3.00319e-06
 Reference value :  3.00387e-06
 Reference value :  3.00463e-06
 Reference value :  3.00544e-06
 Reference value :  3.00629e-06
 Reference value :  3.00707e-06
 Reference value :  3.00795e-06
 Reference value :  3.00886e-06
 Reference value :  3.00978e-06
 Reference value :  3.01109e-06
 Reference value :  3.01259e-06
 Reference value :  3.01474e-06
 Reference value :  3.01630e-06
 Reference value :  3.01799e-06
 Reference value :  3.01978e-06
 Reference value :  3.02119e-06
 Reference value :  3.02259e-06
 Reference value :  3.02426e-06
 Reference value :  3.02586e-06
 Reference value :  3.02734e-06
 Reference value :  3.02929e-06
 Reference value :  3.03172e-06
 Reference value :  3.03435e-06
 Reference value :  3.03890e-06
 Reference value :  3.04353e-06
 Reference value :  3.04781e-06
 Reference value :  3.05079e-06
 Reference value :  3.05358e-06
 Reference value :  3.05658e-06
 Reference value :  3.06015e-06
 Reference value :  3.06501e-06
 Reference value :  3.07097e-06
 Reference value :  3.07944e-06
 Reference value :  3.09049e-06
 Reference value :  3.10750e-06
 Reference value :  3.13103e-06
 Reference value :  3.16598e-06
 Reference value :  3.21092e-06
 Reference value :  3.25010e-06
 Reference value :  3.25011e-06
 Reference value :  3.25013e-06
 Reference value :  3.25017e-06
 Reference value :  3.25020e-06
 Reference value :  3.25020e-06
 Reference value :  3.25020e-06
 Reference value :  3.25021e-06
 Reference value :  3.25021e-06
 Reference value :  3.25022e-06
 Reference value :  3.25025e-06
 Reference value :  3.25029e-06
 Reference value :  3.25039e-06
 Reference value :  3.25058e-06
 Reference value :  3.25091e-06
 Reference value :  3.25145e-06
 Reference value :  3.25208e-06
 Reference value :  3.25275e-06
 Reference value :  3.25348e-06
 Reference value :  3.25450e-06
 Reference value :  3.25525e-06
 Reference value :  3.25611e-06
 Reference value :  3.25699e-06
 Reference value :  3.25791e-06
 Reference value :  3.25923e-06
 Reference value :  3.26097e-06
 Reference value :  3.26320e-06
 Reference value :  3.26630e-06
 Reference value :  3.27060e-06
 Reference value :  3.27921e-06
 Reference value :  3.29602e-06
 Reference value :  3.32510e-06
 Reference value :  3.38327e-06
 Reference value :  3.49731e-06
 Reference value :  3.50000e-06
 Reference value :  3.50001e-06
 Reference value :  3.50003e-06
 Reference value :  3.50007e-06
 Reference value :  3.50010e-06
 Reference value :  3.50010e-06
 Reference value :  3.50011e-06
 Reference value :  3.50013e-06
 Reference value :  3.50016e-06
 Reference value :  3.50023e-06
 Reference value :  3.50037e-06
 Reference value :  3.50054e-06
 Reference value :  3.50090e-06
 Reference value :  3.50141e-06
 Reference value :  3.50196e-06
 Reference value :  3.50255e-06
 Reference value :  3.50319e-06
 Reference value :  3.50387e-06
 Reference value :  3.50464e-06
 Reference value :  3.50546e-06
 Reference value :  3.50632e-06
 Reference value :  3.50752e-06
 Reference value :  3.50872e-06
 Reference value :  3.51001e-06
 Reference value :  3.51145e-06
 Reference value :  3.51292e-06
 Reference value :  3.51433e-06
 Reference value :  3.51583e-06
 Reference value :  3.51733e-06
 Reference value :  3.51907e-06
 Reference value :  3.52255e-06
 Reference value :  3.52872e-06
 Reference value :  3.54105e-06
 Reference value :  3.56572e-06
 Reference value :  3.61505e-06
 Reference value :  3.71372e-06
 Reference value :  3.75010e-06
 Reference value :  3.75011e-06
 Reference value :  3.75013e-06
 Reference value :  3.75017e-06
 Reference value :  3.75020e-06
 Reference value :  3.75020e-06
 Reference value :  3.75020e-06
 Reference value :  3.75021e-06
 Reference value :  3.75021e-06
 Reference value :  3.75022e-06
 Reference value :  3.75025e-06
 Reference value :  3.75029e-06
 Reference value :  3.75039e-06
 Reference value :  3.75058e-06
 Reference value :  3.75091e-06
 Reference value :  3.75145e-06
 Reference value :  3.75208e-06
 Reference value :  3.75275e-06
 Reference value :  3.75348e-06
 Reference value :  3.75450e-06
 Reference value :  3.75523e-06
 Reference value :  3.75609e-06
 Reference value :  3.75683e-06
 Reference value :  3.75766e-06
 Reference value :  3.75866e-06
 Reference value :  3.75978e-06
 Reference value :  3.76202e-06
 Reference value :  3.76439e-06
 Reference value :  3.76837e-06
 Reference value :  3.77331e-06
 Reference value :  3.78321e-06
 Reference value :  3.80300e-06
 Reference value :  3.84177e-06
 Reference value :  3.91930e-06
 Reference value :  4.00000e-06
 Reference value :  4.00001e-06
 Reference value :  4.00003e-06
 Reference value :  4.00007e-06
 Reference value :  4.00010e-06
 Reference value :  4.00010e-06
 Reference value :  4.00011e-06
 Reference value :  4.00013e-06
 Reference value :  4.00016e-06
 Reference value :  4.00023e-06
 Reference value :  4.00037e-06
 Reference value :  4.00054e-06
 Reference value :  4.00090e-06
 Reference value :  4.00141e-06
 Reference value :  4.00196e-06
 Reference value :  4.00255e-06
 Reference value :  4.00320e-06
 Reference value :  4.00387e-06
 Reference value :  4.00463e-06
 Reference value :  4.00545e-06
 Reference value :  4.00635e-06
 Reference value :  4.00728e-06
 Reference value :  4.00808e-06
 Reference value :  4.00904e-06
 Reference value :  4.00996e-06
 Reference value :  4.01119e-06
 Reference value :  4.01292e-06
 Reference value :  4.01527e-06
 Reference value :  4.01786e-06
 Reference value :  4.02004e-06
 Reference value :  4.02176e-06
 Reference value :  4.02338e-06
 Reference value :  4.02524e-06
 Reference value :  4.02693e-06
 Reference value :  4.02911e-06
 Reference value :  4.03111e-06
 Reference value :  4.03391e-06
 Reference value :  4.03762e-06
 Reference value :  4.04347e-06
 Reference value :  4.05306e-06
 Reference value :  4.06875e-06
 Reference value :  4.08966e-06
 Reference value :  4.11280e-06
 Reference value :  4.13913e-06
 Reference value :  4.16464e-06
 Reference value :  4.20166e-06
 Reference value :  4.23746e-06
 Reference value :  4.25010e-06
 Reference value :  4.25011e-06
 Reference value :  4.25013e-06
 Reference value :  4.25017e-06
 Reference value :  4.25020e-06
 Reference value :  4.25020e-06
 Reference value :  4.25020e-06
 Reference value :  4.25021e-06
 Reference value :  4.25021e-06
 Reference value :  4.25022e-06
 Reference value :  4.25025e-06
 Reference value :  4.25030e-06
 Reference value :  4.25039e-06
 Reference value :  4.25059e-06
 Reference value :  4.25093e-06
 Reference value :  4.25146e-06
 Reference value :  4.25210e-06
 Reference value :  4.25276e-06
 Reference value :  4.25349e-06
 Reference value :  4.25451e-06
 Reference value :  4.25526e-06
 Reference value :  4.25612e-06
 Reference value :  4.25699e-06
 Reference value :  4.25791e-06
 Reference value :  4.25922e-06
 Reference value :  4.26100e-06
 Reference value :  4.26324e-06
 Reference value :  4.26636e-06
 Reference value :  4.27067e-06
 Reference value :  4.27930e-06
 Reference value :  4.29629e-06
 Reference value :  4.32559e-06
 Reference value :  4.38420e-06
 Reference value :  4.49385e-06
 Reference value :  4.50000e-06
 Reference value :  4.50001e-06
 Reference value :  4.50003e-06
 Reference value :  4.50007e-06
 Reference value :  4.50010e-06
 Reference value :  4.50010e-06
 Reference value :  4.50011e-06
 Reference value :  4.50013e-06
 Reference value :  4.50016e-06
 Reference value :  4.50023e-06
 Reference value :  4.50037e-06
 Reference value :  4.50054e-06
 Reference value :  4.50090e-06
 Reference value :  4.50141e-06
 Reference value :  4.50196e-06
 Reference value :  4.50255e-06
 Reference value :  4.50319e-06
 Reference value :  4.50387e-06
 Reference value :  4.50464e-06
 Reference value :  4.50545e-06
 Reference value :  4.50631e-06
 Reference value :  4.50751e-06
 Reference value :  4.50871e-06
 Reference value :  4.50993e-06
 Reference value :  4.51126e-06
 Reference value :  4.51284e-06
 Reference value :  4.51434e-06
 Reference value :  4.51579e-06
 Reference value :  4.51736e-06
 Reference value :  4.51915e-06
 Reference value :  4.52235e-06
 Reference value :  4.52719e-06
 Reference value :  4.53685e-06
 Reference value :  4.55560e-06
 Reference value :  4.59235e-06
 Reference value :  4.66585e-06
 Reference value :  4.75010e-06
 Reference value :  4.75011e-06
 Reference value :  4.75013e-06
 Reference value :  4.75017e-06
 Reference value :  4.75020e-06
 Reference value :  4.75020e-06
 Reference value :  4.75020e-06
 Reference value :  4.75021e-06
 Reference value :  4.75021e-06
 Reference value :  4.75022e-06
 Reference value :  4.75025e-06
 Reference value :  4.75029e-06
 Reference value :  4.75039e-06
 Reference value :  4.75058e-06
 Reference value :  4.75091e-06
 Reference value :  4.75145e-06
 Reference value :  4.75208e-06
 Reference value :  4.75274e-06
 Reference value :  4.75347e-06
 Reference value :  4.75449e-06
 Reference value :  4.75522e-06
 Reference value :  4.75608e-06
 Reference value :  4.75682e-06
 Reference value :  4.75764e-06
 Reference value :  4.75864e-06
 Reference value :  4.75976e-06
 Reference value :  4.76198e-06
 Reference value :  4.76434e-06
 Reference value :  4.76829e-06
 Reference value :  4.77319e-06
 Reference value :  4.78297e-06
 Reference value :  4.80255e-06
 Reference value :  4.84055e-06
 Reference value :  4.91654e-06
 Reference value :  5.00000e-06
 Reference value :  5.00001e-06
 Reference value :  5.00003e-06
 Reference value :  5.00007e-06
 Reference value :  5.00010e-06
 Reference value :  5.00010e-06
 Reference value :  5.00011e-06
 Reference value :  5.00013e-06
 Reference value :  5.00016e-06
 Reference value :  5.00023e-06
 Reference value :  5.00037e-06
 Reference value :  5.00054e-06
 Reference value :  5.00090e-06
 Reference value :  5.00141e-06
 Reference value :  5.00196e-06
 Reference value :  5.00254e-06
 Reference value :  5.00320e-06
 Reference value :  5.00389e-06
 Reference value :  5.00465e-06
 Reference value :  5.00547e-06
 Reference value :  5.00635e-06
 Reference value :  5.00731e-06
 Reference value :  5.00809e-06
 Reference value :  5.00898e-06
 Reference value :  5.00996e-06
 Reference value :  5.01112e-06
 Reference value :  5.01297e-06
 Reference value :  5.01548e-06
 Reference value :  5.01798e-06
 Reference value :  5.02017e-06
 Reference value :  5.02189e-06
 Reference value :  5.02349e-06
 Reference value :  5.02507e-06
 Reference value :  5.02678e-06
 Reference value :  5.02870e-06
 Reference value :  5.03073e-06
 Reference value :  5.03339e-06
 Reference value :  5.03711e-06
 Reference value :  5.04321e-06
 Reference value :  5.05087e-06
 Reference value :  5.05779e-06
 Reference value :  5.06577e-06
 Reference value :  5.07462e-06
 Reference value :  5.08055e-06
 Reference value :  5.08699e-06
 Reference value :  5.09416e-06
 Reference value :  5.10079e-06
 Reference value :  5.10749e-06
 Reference value :  5.11515e-06
 Reference value :  5.13014e-06
 Reference value :  5.14633e-06
 Reference value :  5.17412e-06
 Reference value :  5.20405e-06
 Reference value :  5.24786e-06
 Reference value :  5.25010e-06
 Reference value :  5.25011e-06
 Reference value :  5.25013e-06
 Reference value :  5.25017e-06
 Reference value :  5.25020e-06
 Reference value :  5.25020e-06
 Reference value :  5.25020e-06
 Reference value :  5.25021e-06
 Reference value :  5.25021e-06
 Reference value :  5.25022e-06
 Reference value :  5.25025e-06
 Reference value :  5.25029e-06
 Reference value :  5.25039e-06
 Reference value :  5.25058e-06
 Reference value :  5.25091e-06
 Reference value :  5.25145e-06
 Reference value :  5.25207e-06
 Reference value :  5.25274e-06
 Reference value :  5.25347e-06
 Reference value :  5.25449e-06
 Reference value :  5.25521e-06
 Reference value :  5.25604e-06
 Reference value :  5.25692e-06
 Reference value :  5.25783e-06
 Reference value :  5.25910e-06
 Reference value :  5.26096e-06
 Reference value :  5.26314e-06
 Reference value :  5.26622e-06
 Reference value :  5.27046e-06
 Reference value :  5.27895e-06
 Reference value :  5.28778e-06
 Reference value :  5.29825e-06
 Reference value :  5.30627e-06
 Reference value :  5.31485e-06
 Reference value :  5.32461e-06
 Reference value :  5.33671e-06
 Reference value :  5.35264e-06
 Reference value :  5.36727e-06
 Reference value :  5.39655e-06
 Reference value :  5.43929e-06
 Reference value :  5.50000e-06
 Reference value :  5.50001e-06
 Reference value :  5.50003e-06
 Reference value :  5.50007e-06
 Reference value :  5.50010e-06
 Reference value :  5.50010e-06
 Reference value :  5.50011e-06
 Reference value :  5.50013e-06
 Reference value :  5.50016e-06
 Reference value :  5.50023e-06
 Reference value :  5.50037e-06
 Reference value :  5.50054e-06
 Reference value :  5.50090e-06
 Reference value :  5.50141e-06
 Reference value :  5.50196e-06
 Reference value :  5.50255e-06
 Reference value :  5.50319e-06
 Reference value :  5.50387e-06
 Reference value :  5.50464e-06
 Reference value :  5.50546e-06
 Reference value :  5.50637e-06
 Reference value :  5.50755e-06
 Reference value :  5.50880e-06
 Reference value :  5.51000e-06
 Reference value :  5.51128e-06
 Reference value :  5.51272e-06
 Reference value :  5.51409e-06
 Reference value :  5.51551e-06
 Reference value :  5.51702e-06
 Reference value :  5.51876e-06
 Reference value :  5.52209e-06
 Reference value :  5.52705e-06
 Reference value :  5.53696e-06
 Reference value :  5.55679e-06
 Reference value :  5.59576e-06
 Reference value :  5.67369e-06
 Reference value :  5.75010e-06
 Reference value :  5.75011e-06
 Reference value :  5.75013e-06
 Reference value :  5.75017e-06
 Reference value :  5.75020e-06
 Reference value :  5.75020e-06
 Reference value :  5.75020e-06
 Reference value :  5.75021e-06
 Reference value :  5.75021e-06
 Reference value :  5.75022e-06
 Reference value :  5.75025e-06
 Reference value :  5.75029e-06
 Reference value :  5.75039e-06
 Reference value :  5.75058e-06
 Reference value :  5.75091e-06
 Reference value :  5.75145e-06
 Reference value :  5.75208e-06
 Reference value :  5.75274e-06
 Reference value :  5.75347e-06
 Reference value :  5.75449e-06
 Reference value :  5.75523e-06
 Reference value :  5.75609e-06
 Reference value :  5.75683e-06
 Reference value :  5.75765e-06
 Reference value :  5.75866e-06
 Reference value :  5.75977e-06
 Reference value :  5.76200e-06
 Reference value :  5.76436e-06
 Reference value :  5.76833e-06
 Reference value :  5.77325e-06
 Reference value :  5.78310e-06
 Reference value :  5.80280e-06
 Reference value :  5.84092e-06
 Reference value :  5.91715e-06
 Reference value :  6.00000e-06
 Reference value :  6.00001e-06
 Reference value :  6.00003e-06
 Reference value :  6.00007e-06
 Reference value :  6.00010e-06
 Reference value :  6.00010e-06
 Reference value :  6.00011e-06
 Reference value :  6.00013e-06
 Reference value :  6.00016e-06
 Reference value :  6.00023e-06
 Reference value :  6.00037e-06
 Reference value :  6.00054e-06
 Reference value :  6.00090e-06
 Reference value :  6.00141e-06
 Reference value :  6.00196e-06
 Reference value :  6.00255e-06
 Reference value :  6.00320e-06
 Reference value :  6.00388e-06
 Reference value :  6.00464e-06
 Reference value :  6.00545e-06
 Reference value :  6.00630e-06
 Reference value :  6.00724e-06
 Reference value :  6.00801e-06
 Reference value :  6.00887e-06
 Reference value :  6.00988e-06
 Reference value :  6.01100e-06
 Reference value :  6.01289e-06
 Reference value :  6.01530e-06
 Reference value :  6.01804e-06
 Reference value :  6.02027e-06
 Reference value :  6.02208e-06
 Reference value :  6.02379e-06
 Reference value :  6.02542e-06
 Reference value :  6.02715e-06
 Reference value :  6.02910e-06
 Reference value :  6.03125e-06
 Reference value :  6.03381e-06
 Reference value :  6.03762e-06
 Reference value :  6.04310e-06
 Reference value :  6.05057e-06
 Reference value :  6.05806e-06
 Reference value :  6.06405e-06
 Reference value :  6.07043e-06
 Reference value :  6.07674e-06
 Reference value :  6.08371e-06
 Reference value :  6.09100e-06
 Reference value :  6.09774e-06
 Reference value :  6.10545e-06
 Reference value :  6.12086e-06
 Reference value :  6.14451e-06
 Reference value :  6.18360e-06
 Reference value :  6.23235e-06
 Reference value :  6.25010e-06
 Reference value :  6.25011e-06
 Reference value :  6.25013e-06
 Reference value :  6.25017e-06
 Reference value :  6.25020e-06
 Reference value :  6.25020e-06
 Reference value :  6.25020e-06
 Reference value :  6.25021e-06
 Reference value :  6.25021e-06
 Reference value :  6.25022e-06
 Reference value :  6.25025e-06
 Reference value :  6.25029e-06
 Reference value :  6.25039e-06
 Reference value :  6.25058e-06
 Reference value :  6.25091e-06
 Reference value :  6.25145e-06
 Reference value :  6.25208e-06
 Reference value :  6.25275e-06
 Reference value :  6.25348e-06
 Reference value :  6.25449e-06
 Reference value :  6.25521e-06
 Reference value :  6.25603e-06
 Reference value :  6.25692e-06
 Reference value :  6.25783e-06
 Reference value :  6.25909e-06
 Reference value :  6.26097e-06
 Reference value :  6.26314e-06
 Reference value :  6.26624e-06
 Reference value :  6.27046e-06
 Reference value :  6.27892e-06
 Reference value :  6.29571e-06
 Reference value :  6.32446e-06
 Reference value :  6.38196e-06
 Reference value :  6.49695e-06
 Reference value :  6.50000e-06
 Reference value :  6.50001e-06
 Reference value :  6.50003e-06
 Reference value :  6.50007e-06
 Reference value :  6.50010e-06
 Reference value :  6.50010e-06
 Reference value :  6.50011e-06
 Reference value :  6.50013e-06
 Reference value :  6.50016e-06
 Reference value :  6.50023e-06
 Reference value :  6.50037e-06
 Reference value :  6.50054e-06
 Reference value :  6.50090e-06
 Reference value :  6.50141e-06
 Reference value :  6.50196e-06
 Reference value :  6.50251e-06
 Reference value :  6.50320e-06
 Reference value :  6.50385e-06
 Reference value :  6.50462e-06
 Reference value :  6.50543e-06
 Reference value :  6.50629e-06
 Reference value :  6.50753e-06
 Reference value :  6.50871e-06
 Reference value :  6.51007e-06
 Reference value :  6.51160e-06
 Reference value :  6.51300e-06
 Reference value :  6.51440e-06
 Reference value :  6.51590e-06
 Reference value :  6.51759e-06
 Reference value :  6.51949e-06
 Reference value :  6.52297e-06
 Reference value :  6.52805e-06
 Reference value :  6.53778e-06
 Reference value :  6.55591e-06
 Reference value :  6.58951e-06
 Reference value :  6.65568e-06
 Reference value :  6.75010e-06
 Reference value :  6.75011e-06
 Reference value :  6.75013e-06
 Reference value :  6.75017e-06
 Reference value :  6.75020e-06
 Reference value :  6.75020e-06
 Reference value :  6.75020e-06
 Reference value :  6.75021e-06
 Reference value :  6.75021e-06
 Reference value :  6.75022e-06
 Reference value :  6.75025e-06
 Reference value :  6.75029e-06
 Reference value :  6.75039e-06
 Reference value :  6.75058e-06
 Reference value :  6.75091e-06
 Reference value :  6.75145e-06
 Reference value :  6.75208e-06
 Reference value :  6.75275e-06
 Reference value :  6.75348e-06
 Reference value :  6.75450e-06
 Reference value :  6.75523e-06
 Reference value :  6.75609e-06
 Reference value :  6.75683e-06
 Reference value :  6.75766e-06
 Reference value :  6.75866e-06
 Reference value :  6.75978e-06
 Reference value :  6.76093e-06
 Reference value :  6.76258e-06
 Reference value :  6.76446e-06
 Reference value :  6.76697e-06
 Reference value :  6.77019e-06
 Reference value :  6.77481e-06
 Reference value :  6.78405e-06
 Reference value :  6.80034e-06
 Reference value :  6.83292e-06
 Reference value :  6.89808e-06
 Reference value :  7.00000e-06
 Reference value :  7.00001e-06
 Reference value :  7.00003e-06
 Reference value :  7.00007e-06
 Reference value :  7.00010e-06
 Reference value :  7.00010e-06
 Reference value :  7.00011e-06
 Reference value :  7.00013e-06
 Reference value :  7.00016e-06
 Reference value :  7.00023e-06
 Reference value :  7.00037e-06
 Reference value :  7.00054e-06
 Reference value :  7.00090e-06
 Reference value :  7.00141e-06
 Reference value :  7.00196e-06
 Reference value :  7.00254e-06
 Reference value :  7.00319e-06
 Reference value :  7.00387e-06
 Reference value :  7.00463e-06
 Reference value :  7.00544e-06
 Reference value :  7.00622e-06
 Reference value :  7.00703e-06
 Reference value :  7.00782e-06
 Reference value :  7.00872e-06
 Reference value :  7.00960e-06
 Reference value :  7.01079e-06
 Reference value :  7.01245e-06
 Reference value :  7.01423e-06
 Reference value :  7.01578e-06
 Reference value :  7.01739e-06
 Reference value :  7.01893e-06
 Reference value :  7.02054e-06
 Reference value :  7.02178e-06
 Reference value :  7.02296e-06
 Reference value :  7.02443e-06
 Reference value :  7.02587e-06
 Reference value :  7.02726e-06
 Reference value :  7.02898e-06
 Reference value :  7.03153e-06
 Reference value :  7.03387e-06
 Reference value :  7.03847e-06
 Reference value :  7.04434e-06
 Reference value :  7.04991e-06
 Reference value :  7.05843e-06
 Reference value :  7.07398e-06
 Reference value :  7.09713e-06
 Reference value :  7.13412e-06
 Reference value :  7.17438e-06
 Reference value :  7.22017e-06
 Reference value :  7.25010e-06
 Reference value :  7.25011e-06
 Reference value :  7.25013e-06
 Reference value :  7.25017e-06
 Reference value :  7.25020e-06
 Reference value :  7.25020e-06
 Reference value :  7.25020e-06
 Reference value :  7.25021e-06
 Reference value :  7.25021e-06
 Reference value :  7.25022e-06
 Reference value :  7.25025e-06
 Reference value :  7.25030e-06
 Reference value :  7.25039e-06
 Reference value :  7.25059e-06
 Reference value :  7.25093e-06
 Reference value :  7.25146e-06
 Reference value :  7.25211e-06
 Reference value :  7.25276e-06
 Reference value :  7.25350e-06
 Reference value :  7.25452e-06
 Reference value :  7.25523e-06
 Reference value :  7.25604e-06
 Reference value :  7.25694e-06
 Reference value :  7.25786e-06
 Reference value :  7.25910e-06
 Reference value :  7.26109e-06
 Reference value :  7.26320e-06
 Reference value :  7.26642e-06
 Reference value :  7.27060e-06
 Reference value :  7.27895e-06
 Reference value :  7.28875e-06
 Reference value :  7.30240e-06
 Reference value :  7.31927e-06
 Reference value :  7.35302e-06
 Reference value :  7.41508e-06
 Reference value :  7.50000e-06
 Reference value :  7.50001e-06
 Reference value :  7.50003e-06
 Reference value :  7.50007e-06
 Reference value :  7.50010e-06
 Reference value :  7.50010e-06
 Reference value :  7.50011e-06
 Reference value :  7.50013e-06
 Reference value :  7.50016e-06
 Reference value :  7.50023e-06
 Reference value :  7.50037e-06
 Reference value :  7.50055e-06
 Reference value :  7.50091e-06
 Reference value :  7.50142e-06
 Reference value :  7.50196e-06
 Reference value :  7.50253e-06
 Reference value :  7.50318e-06
 Reference value :  7.50385e-06
 Reference value :  7.50463e-06
 Reference value :  7.50545e-06
 Reference value :  7.50637e-06
 Reference value :  7.50757e-06
 Reference value :  7.50881e-06
 Reference value :  7.51011e-06
 Reference value :  7.51155e-06
 Reference value :  7.51306e-06
 Reference value :  7.51446e-06
 Reference value :  7.51594e-06
 Reference value :  7.51746e-06
 Reference value :  7.51922e-06
 Reference value :  7.52262e-06
 Reference value :  7.52760e-06
 Reference value :  7.53755e-06
 Reference value :  7.55746e-06
 Reference value :  7.58382e-06
 Reference value :  7.60625e-06
 Reference value :  7.63019e-06
 Reference value :  7.66127e-06
 Reference value :  7.71183e-06
 Reference value :  7.75010e-06
 Reference value :  7.75011e-06
 Reference value :  7.75013e-06
 Reference value :  7.75017e-06
 Reference value :  7.75020e-06
 Reference value :  7.75020e-06
 Reference value :  7.75020e-06
 Reference value :  7.75021e-06
 Reference value :  7.75021e-06
 Reference value :  7.75022e-06
 Reference value :  7.75025e-06
 Reference value :  7.75030e-06
 Reference value :  7.75039e-06
 Reference value :  7.75059e-06
 Reference value :  7.75093e-06
 Reference value :  7.75146e-06
 Reference value :  7.75211e-06
 Reference value :  7.75276e-06
 Reference value :  7.75350e-06
 Reference value :  7.75452e-06
 Reference value :  7.75525e-06
 Reference value :  7.75609e-06
 Reference value :  7.75684e-06
 Reference value :  7.75766e-06
 Reference value :  7.75867e-06
 Reference value :  7.75979e-06
 Reference value :  7.76094e-06
 Reference value :  7.76260e-06
 Reference value :  7.76448e-06
 Reference value :  7.76702e-06
 Reference value :  7.77028e-06
 Reference value :  7.77498e-06
 Reference value :  7.78436e-06
 Reference value :  7.80224e-06
 Reference value :  7.83801e-06
 Reference value :  7.90954e-06
 Reference value :  8.00000e-06
 Reference value :  8.00001e-06
 Reference value :  8.00003e-06
 Reference value :  8.00007e-06
 Reference value :  8.00010e-06
 Reference value :  8.00010e-06
 Reference value :  8.00011e-06
 Reference value :  8.00013e-06
 Reference value :  8.00016e-06
 Reference value :  8.00023e-06
 Reference value :  8.00037e-06
 Reference value :  8.00055e-06
 Reference value :  8.00090e-06
 Reference value :  8.00141e-06
 Reference value :  8.00195e-06
 Reference value :  8.00253e-06
 Reference value :  8.00318e-06
 Reference value :  8.00386e-06
 Reference value :  8.00462e-06
 Reference value :  8.00543e-06
 Reference value :  8.00628e-06
 Reference value :  8.00710e-06
 Reference value :  8.00790e-06
 Reference value :  8.00880e-06
 Reference value :  8.00970e-06
 Reference value :  8.01089e-06
 Reference value :  8.01256e-06
 Reference value :  8.01441e-06
 Reference value :  8.01597e-06
 Reference value :  8.01760e-06
 Reference value :  8.01936e-06
 Reference value :  8.02106e-06
 Reference value :  8.02300e-06
 Reference value :  8.02518e-06
 Reference value :  8.02718e-06
 Reference value :  8.02929e-06
 Reference value :  8.03139e-06
 Reference value :  8.03360e-06
 Reference value :  8.03608e-06
 Reference value :  8.04105e-06
 Reference value :  8.04935e-06
 Reference value :  8.06359e-06
 Reference value :  8.09034e-06
 Reference value :  8.13488e-06
 Reference value :  8.22178e-06
 Reference value :  8.25010e-06
 Reference value :  8.25011e-06
 Reference value :  8.25013e-06
 Reference value :  8.25017e-06
 Reference value :  8.25020e-06
 Reference value :  8.25020e-06
 Reference value :  8.25020e-06
 Reference value :  8.25021e-06
 Reference value :  8.25021e-06
 Reference value :  8.25022e-06
 Reference value :  8.25025e-06
 Reference value :  8.25030e-06
 Reference value :  8.25039e-06
 Reference value :  8.25059e-06
 Reference value :  8.25098e-06
 Reference value :  8.25148e-06
 Reference value :  8.25216e-06
 Reference value :  8.25279e-06
 Reference value :  8.25355e-06
 Reference value :  8.25459e-06
 Reference value :  8.25557e-06
 Reference value :  8.25697e-06
 Reference value :  8.25857e-06
 Reference value :  8.26006e-06
 Reference value :  8.26258e-06
 Reference value :  8.26526e-06
 Reference value :  8.26967e-06
 Reference value :  8.27642e-06
 Reference value :  8.28993e-06
 Reference value :  8.31695e-06
 Reference value :  8.36931e-06
 Reference value :  8.47405e-06
 Reference value :  8.50000e-06
 Reference value :  8.50000e-06
 Reference value :  8.50000e-06
 Reference value :  8.50000e-06
 Reference value :  8.50000e-06
 Reference value :  8.50000e-06
 Reference value :  8.50000e-06
 Reference value :  8.50000e-06
 Reference value :  8.50000e-06
 Reference value :  8.50000e-06
 Reference value :  8.50001e-06
 Reference value :  8.50001e-06
 Reference value :  8.50002e-06
 Reference value :  8.50004e-06
 Reference value :  8.50008e-06
 Reference value :  8.50010e-06
 Reference value :  8.50010e-06
 Reference value :  8.50011e-06
 Reference value :  8.50012e-06
 Reference value :  8.50014e-06
 Reference value :  8.50018e-06
 Reference value :  8.50026e-06
 Reference value :  8.50043e-06
 Reference value :  8.50077e-06
 Reference value :  8.50128e-06
 Reference value :  8.50204e-06
 Reference value :  8.50282e-06
 Reference value :  8.50353e-06
 Reference value :  8.50429e-06
 Reference value :  8.50506e-06
 Reference value :  8.50587e-06
 Reference value :  8.50695e-06
 Reference value :  8.50809e-06
 Reference value :  8.51036e-06
 Reference value :  8.51181e-06
 Reference value :  8.51329e-06
 Reference value :  8.51498e-06
 Reference value :  8.51685e-06
 Reference value :  8.51968e-06
 Reference value :  8.52318e-06
 Reference value :  8.52792e-06
 Reference value :  8.53346e-06
 Reference value :  8.53733e-06
 Reference value :  8.54093e-06
 Reference value :  8.54382e-06
 Reference value :  8.54641e-06
 Reference value :  8.54846e-06
 Reference value :  8.55053e-06
 Reference value :  8.55256e-06
 Reference value :  8.55471e-06
 Reference value :  8.55759e-06
 Reference value :  8.56108e-06
 Reference value :  8.56621e-06
 Reference value :  8.57362e-06
 Reference value :  8.58177e-06
 Reference value :  8.59049e-06
 Reference value :  8.60182e-06
 Reference value :  8.61952e-06
 Reference value :  8.63586e-06
 Reference value :  8.65690e-06
 Reference value :  8.68155e-06
 Reference value :  8.71144e-06
 Reference value :  8.74940e-06
 Reference value :  8.75010e-06
 Reference value :  8.75011e-06
 Reference value :  8.75013e-06
 Reference value :  8.75017e-06
 Reference value :  8.75020e-06
 Reference value :  8.75020e-06
 Reference value :  8.75020e-06
 Reference value :  8.75021e-06
 Reference value :  8.75021e-06
 Reference value :  8.75022e-06
 Reference value :  8.75025e-06
 Reference value :  8.75029e-06
 Reference value :  8.75039e-06
 Reference value :  8.75058e-06
 Reference value :  8.75096e-06
 Reference value :  8.75147e-06
 Reference value :  8.75214e-06
 Reference value :  8.75279e-06
 Reference value :  8.75352e-06
 Reference value :  8.75444e-06
 Reference value :  8.75520e-06
 Reference value :  8.75607e-06
 Reference value :  8.75688e-06
 Reference value :  8.75776e-06
 Reference value :  8.75916e-06
 Reference value :  8.76058e-06
 Reference value :  8.76300e-06
 Reference value :  8.76577e-06
 Reference value :  8.77024e-06
 Reference value :  8.77775e-06
 Reference value :  8.79276e-06
 Reference value :  8.81977e-06
 Reference value :  8.87379e-06
 Reference value :  8.98183e-06
 Reference value :  9.00000e-06
 Reference value :  9.00001e-06
 Reference value :  9.00003e-06
 Reference value :  9.00007e-06
 Reference value :  9.00010e-06
 Reference value :  9.00010e-06
 Reference value :  9.00011e-06
 Reference value :  9.00013e-06
 Reference value :  9.00016e-06
 Reference value :  9.00023e-06
 Reference value :  9.00037e-06
 Reference value :  9.00055e-06
 Reference value :  9.00093e-06
 Reference value :  9.00144e-06
 Reference value :  9.00198e-06
 Reference value :  9.00257e-06
 Reference value :  9.00330e-06
 Reference value :  9.00398e-06
 Reference value :  9.00491e-06
 Reference value :  9.00574e-06
 Reference value :  9.00672e-06
 Reference value :  9.00803e-06
 Reference value :  9.00939e-06
 Reference value :  9.01136e-06
 Reference value :  9.01385e-06
 Reference value :  9.01571e-06
 Reference value :  9.01775e-06
 Reference value :  9.02015e-06
 Reference value :  9.02256e-06
 Reference value :  9.02523e-06
 Reference value :  9.03016e-06
 Reference value :  9.03658e-06
 Reference value :  9.04616e-06
 Reference value :  9.06532e-06
 Reference value :  9.09281e-06
 Reference value :  9.14779e-06
 Reference value :  9.24818e-06
 Reference value :  9.25010e-06
 Reference value :  9.25011e-06
 Reference value :  9.25013e-06
 Reference value :  9.25017e-06
 Reference value :  9.25020e-06
 Reference value :  9.25020e-06
 Reference value :  9.25020e-06
 Reference value :  9.25021e-06
 Reference value :  9.25021e-06
 Reference value :  9.25022e-06
 Reference value :  9.25025e-06
 Reference value :  9.25030e-06
 Reference value :  9.25039e-06
 Reference value :  9.25059e-06
 Reference value :  9.25097e-06
 Reference value :  9.25149e-06
 Reference value :  9.25216e-06
 Reference value :  9.25280e-06
 Reference value :  9.25356e-06
 Reference value :  9.25461e-06
 Reference value :  9.25534e-06
 Reference value :  9.25618e-06
 Reference value :  9.25694e-06
 Reference value :  9.25777e-06
 Reference value :  9.25886e-06
 Reference value :  9.26006e-06
 Reference value :  9.26246e-06
 Reference value :  9.26496e-06
 Reference value :  9.26923e-06
 Reference value :  9.27492e-06
 Reference value :  9.28630e-06
 Reference value :  9.30906e-06
 Reference value :  9.35458e-06
 Reference value :  9.44563e-06
 Reference value :  9.50000e-06
 Reference value :  9.50001e-06
 Reference value :  9.50003e-06
 Reference value :  9.50007e-06
 Reference value :  9.50010e-06
 Reference value :  9.50010e-06
 Reference value :  9.50011e-06
 Reference value :  9.50013e-06
 Reference value :  9.50016e-06
 Reference value :  9.50023e-06
 Reference value :  9.50037e-06
 Reference value :  9.50055e-06
 Reference value :  9.50093e-06
 Reference value :  9.50144e-06
 Reference value :  9.50198e-06
 Reference value :  9.50256e-06
 Reference value :  9.50321e-06
 Reference value :  9.50388e-06
 Reference value :  9.50467e-06
 Reference value :  9.50549e-06
 Reference value :  9.50635e-06
 Reference value :  9.50731e-06
 Reference value :  9.50812e-06
 Reference value :  9.50905e-06
 Reference value :  9.50999e-06
 Reference value :  9.51120e-06
 Reference value :  9.51295e-06
 Reference value :  9.51555e-06
 Reference value :  9.51800e-06
 Reference value :  9.52018e-06
 Reference value :  9.52200e-06
 Reference value :  9.52397e-06
 Reference value :  9.52580e-06
 Reference value :  9.52762e-06
 Reference value :  9.52995e-06
 Reference value :  9.53216e-06
 Reference value :  9.53520e-06
 Reference value :  9.53937e-06
 Reference value :  9.54512e-06
 Reference value :  9.55430e-06
 Reference value :  9.56812e-06
 Reference value :  9.58489e-06
 Reference value :  9.59793e-06
 Reference value :  9.61055e-06
 Reference value :  9.61987e-06
 Reference value :  9.62857e-06
 Reference value :  9.63642e-06
 Reference value :  9.64451e-06
 Reference value :  9.65238e-06
 Reference value :  9.66048e-06
 Reference value :  9.67454e-06
 Reference value :  9.69114e-06
 Reference value :  9.71582e-06
 Reference value :  9.75010e-06
 Reference value :  9.75011e-06
 Reference value :  9.75013e-06
 Reference value :  9.75017e-06
 Reference value :  9.75020e-06
 Reference value :  9.75020e-06
 Reference value :  9.75020e-06
 Reference value :  9.75021e-06
 Reference value :  9.75021e-06
 Reference value :  9.75022e-06
 Reference value :  9.75025e-06
 Reference value :  9.75030e-06
 Reference value :  9.75039e-06
 Reference value :  9.75059e-06
 Reference value :  9.75093e-06
 Reference value :  9.75147e-06
 Reference value :  9.75211e-06
 Reference value :  9.75277e-06
 Reference value :  9.75350e-06
 Reference value :  9.75453e-06
 Reference value :  9.75525e-06
 Reference value :  9.75606e-06
 Reference value :  9.75699e-06
 Reference value :  9.75794e-06
 Reference value :  9.75916e-06
 Reference value :  9.76130e-06
 Reference value :  9.76337e-06
 Reference value :  9.76679e-06
 Reference value :  9.77094e-06
 Reference value :  9.77925e-06
 Reference value :  9.79587e-06
 Reference value :  9.82422e-06
 Reference value :  9.88092e-06
 Reference value :  9.98776e-06
 Reference value :  1.00000e-05
 Reference value :  1.00000e-05
 Reference value :  1.00000e-05
 Reference value :  1.00001e-05
 Reference value :  1.00001e-05
 Reference value :  1.00001e-05
 Reference value :  1.00001e-05
 Reference value :  1.00001e-05
 Reference value :  1.00002e-05
 Reference value :  1.00002e-05
 Reference value :  1.00004e-05
 Reference value :  1.00005e-05
 Reference value :  1.00009e-05
 Reference value :  1.00014e-05
 Reference value :  1.00020e-05
 Reference value :  1.00025e-05
 Reference value :  1.00032e-05
 Reference value :  1.00039e-05
 Reference value :  1.00046e-05
 Reference value :  1.00054e-05
 Reference value :  1.00063e-05
 Reference value :  1.00076e-05
 Reference value :  1.00088e-05
 Reference value :  1.00101e-05
 Reference value :  1.00116e-05
 Reference value :  1.00131e-05
 Reference value :  1.00146e-05
 Reference value :  1.00162e-05
 Reference value :  1.00178e-05
 Reference value :  1.00196e-05
 Reference value :  1.00233e-05
 Reference value :  1.00305e-05
 Reference value :  1.00428e-05
 Reference value :  1.00675e-05
 Reference value :  1.01169e-05
 Reference value :  1.02157e-05
 Reference value :  1.02501e-05
 Reference value :  1.02501e-05
 Reference value :  1.02501e-05
 Reference value :  1.02502e-05
 Reference value :  1.02502e-05
 Reference value :  1.02502e-05
 Reference value :  1.02502e-05
 Reference value :  1.02502e-05
 Reference value :  1.02502e-05
 Reference value :  1.02502e-05
 Reference value :  1.02502e-05
 Reference value :  1.02503e-05
 Reference value :  1.02504e-05
 Reference value :  1.02506e-05
 Reference value :  1.02509e-05
 Reference value :  1.02515e-05
 Reference value :  1.02521e-05
 Reference value :  1.02528e-05
 Reference value :  1.02535e-05
 Reference value :  1.02545e-05
 Reference value :  1.02552e-05
 Reference value :  1.02561e-05
 Reference value :  1.02568e-05
 Reference value :  1.02577e-05
 Reference value :  1.02587e-05
 Reference value :  1.02598e-05
 Reference value :  1.02610e-05
 Reference value :  1.02626e-05
 Reference value :  1.02645e-05
 Reference value :  1.02670e-05
 Reference value :  1.02703e-05
 Reference value :  1.02749e-05
 Reference value :  1.02842e-05
 Reference value :  1.03008e-05
 Reference value :  1.03341e-05
 Reference value :  1.04006e-05
 Reference value :  1.05000e-05
 Reference value :  1.05000e-05
 Reference value :  1.05000e-05
 Reference value :  1.05001e-05
 Reference value :  1.05001e-05
 Reference value :  1.05001e-05
 Reference value :  1.05001e-05
 Reference value :  1.05001e-05
 Reference value :  1.05002e-05
 Reference value :  1.05002e-05
 Reference value :  1.05004e-05
 Reference value :  1.05005e-05
 Reference value :  1.05009e-05
 Reference value :  1.05014e-05
 Reference value :  1.05020e-05
 Reference value :  1.05025e-05
 Reference value :  1.05032e-05
 Reference value :  1.05039e-05
 Reference value :  1.05046e-05
 Reference value :  1.05054e-05
 Reference value :  1.05062e-05
 Reference value :  1.05070e-05
 Reference value :  1.05079e-05
 Reference value :  1.05087e-05
 Reference value :  1.05097e-05
 Reference value :  1.05110e-05
 Reference value :  1.05123e-05
 Reference value :  1.05143e-05
 Reference value :  1.05162e-05
 Reference value :  1.05181e-05
 Reference value :  1.05201e-05
 Reference value :  1.05218e-05
 Reference value :  1.05235e-05
 Reference value :  1.05253e-05
 Reference value :  1.05270e-05
 Reference value :  1.05292e-05
 Reference value :  1.05312e-05
 Reference value :  1.05344e-05
 Reference value :  1.05385e-05
 Reference value :  1.05465e-05
 Reference value :  1.05610e-05
 Reference value :  1.05861e-05
 Reference value :  1.06324e-05
 Reference value :  1.06801e-05
 Reference value :  1.07263e-05
 Reference value :  1.07501e-05
 Reference value :  1.07501e-05
 Reference value :  1.07501e-05
 Reference value :  1.07502e-05
 Reference value :  1.07502e-05
 Reference value :  1.07502e-05
 Reference value :  1.07502e-05
 Reference value :  1.07502e-05
 Reference value :  1.07502e-05
 Reference value :  1.07502e-05
 Reference value :  1.07502e-05
 Reference value :  1.07503e-05
 Reference value :  1.07504e-05
 Reference value :  1.07506e-05
 Reference value :  1.07509e-05
 Reference value :  1.07515e-05
 Reference value :  1.07521e-05
 Reference value :  1.07528e-05
 Reference value :  1.07535e-05
 Reference value :  1.07545e-05
 Reference value :  1.07553e-05
 Reference value :  1.07561e-05
 Reference value :  1.07570e-05
 Reference value :  1.07579e-05
 Reference value :  1.07592e-05
 Reference value :  1.07610e-05
 Reference value :  1.07632e-05
 Reference value :  1.07664e-05
 Reference value :  1.07707e-05
 Reference value :  1.07792e-05
 Reference value :  1.07960e-05
 Reference value :  1.08247e-05
 Reference value :  1.08757e-05
 Reference value :  1.09326e-05
 Reference value :  1.09986e-05
 Reference value :  1.10000e-05
 Reference value :  1.10000e-05
 Reference value :  1.10000e-05
 Reference value :  1.10001e-05
 Reference value :  1.10001e-05
 Reference value :  1.10001e-05
 Reference value :  1.10001e-05
 Reference value :  1.10001e-05
 Reference value :  1.10002e-05
 Reference value :  1.10002e-05
 Reference value :  1.10004e-05
 Reference value :  1.10005e-05
 Reference value :  1.10009e-05
 Reference value :  1.10014e-05
 Reference value :  1.10020e-05
 Reference value :  1.10026e-05
 Reference value :  1.10032e-05
 Reference value :  1.10039e-05
 Reference value :  1.10046e-05
 Reference value :  1.10055e-05
 Reference value :  1.10064e-05
 Reference value :  1.10076e-05
 Reference value :  1.10088e-05
 Reference value :  1.10101e-05
 Reference value :  1.10115e-05
 Reference value :  1.10130e-05
 Reference value :  1.10146e-05
 Reference value :  1.10162e-05
 Reference value :  1.10178e-05
 Reference value :  1.10197e-05
 Reference value :  1.10233e-05
 Reference value :  1.10307e-05
 Reference value :  1.10391e-05
 Reference value :  1.10448e-05
 Reference value :  1.10510e-05
 Reference value :  1.10608e-05
 Reference value :  1.10699e-05
 Reference value :  1.10794e-05
 Reference value :  1.10884e-05
 Reference value :  1.10986e-05
 Reference value :  1.11189e-05
 Reference value :  1.11436e-05
 Reference value :  1.11888e-05
 Reference value :  1.12287e-05
 Reference value :  1.12501e-05
 Reference value :  1.12501e-05
 Reference value :  1.12501e-05
 Reference value :  1.12502e-05
 Reference value :  1.12502e-05
 Reference value :  1.12502e-05
 Reference value :  1.12502e-05
 Reference value :  1.12502e-05
 Reference value :  1.12502e-05
 Reference value :  1.12502e-05
 Reference value :  1.12502e-05
 Reference value :  1.12503e-05
 Reference value :  1.12504e-05
 Reference value :  1.12506e-05
 Reference value :  1.12509e-05
 Reference value :  1.12515e-05
 Reference value :  1.12521e-05
 Reference value :  1.12527e-05
 Reference value :  1.12535e-05
 Reference value :  1.12545e-05
 Reference value :  1.12552e-05
 Reference value :  1.12561e-05
 Reference value :  1.12569e-05
 Reference value :  1.12577e-05
 Reference value :  1.12587e-05
 Reference value :  1.12598e-05
 Reference value :  1.12610e-05
 Reference value :  1.12626e-05
 Reference value :  1.12645e-05
 Reference value :  1.12670e-05
 Reference value :  1.12703e-05
 Reference value :  1.12749e-05
 Reference value :  1.12842e-05
 Reference value :  1.13004e-05
 Reference value :  1.13329e-05
 Reference value :  1.13978e-05
 Reference value :  1.15000e-05
 Reference value :  1.15000e-05
 Reference value :  1.15000e-05
 Reference value :  1.15001e-05
 Reference value :  1.15001e-05
 Reference value :  1.15001e-05
 Reference value :  1.15001e-05
 Reference value :  1.15001e-05
 Reference value :  1.15002e-05
 Reference value :  1.15002e-05
 Reference value :  1.15004e-05
 Reference value :  1.15005e-05
 Reference value :  1.15009e-05
 Reference value :  1.15014e-05
 Reference value :  1.15020e-05
 Reference value :  1.15025e-05
 Reference value :  1.15032e-05
 Reference value :  1.15039e-05
 Reference value :  1.15046e-05
 Reference value :  1.15054e-05
 Reference value :  1.15063e-05
 Reference value :  1.15071e-05
 Reference value :  1.15080e-05
 Reference value :  1.15089e-05
 Reference value :  1.15098e-05
 Reference value :  1.15111e-05
 Reference value :  1.15126e-05
 Reference value :  1.15147e-05
 Reference value :  1.15163e-05
 Reference value :  1.15180e-05
 Reference value :  1.15198e-05
 Reference value :  1.15212e-05
 Reference value :  1.15226e-05
 Reference value :  1.15243e-05
 Reference value :  1.15259e-05
 Reference value :  1.15274e-05
 Reference value :  1.15293e-05
 Reference value :  1.15318e-05
 Reference value :  1.15344e-05
 Reference value :  1.15383e-05
 Reference value :  1.15426e-05
 Reference value :  1.15466e-05
 Reference value :  1.15494e-05
 Reference value :  1.15521e-05
 Reference value :  1.15550e-05
 Reference value :  1.15584e-05
 Reference value :  1.15633e-05
 Reference value :  1.15692e-05
 Reference value :  1.15779e-05
 Reference value :  1.15884e-05
 Reference value :  1.16058e-05
 Reference value :  1.16298e-05
 Reference value :  1.16660e-05
 Reference value :  1.17112e-05
 Reference value :  1.17501e-05
 Reference value :  1.17501e-05
 Reference value :  1.17501e-05
 Reference value :  1.17502e-05
 Reference value :  1.17502e-05
 Reference value :  1.17502e-05
 Reference value :  1.17502e-05
 Reference value :  1.17502e-05
 Reference value :  1.17502e-05
 Reference value :  1.17502e-05
 Reference value :  1.17502e-05
 Reference value :  1.17503e-05
 Reference value :  1.17504e-05
 Reference value :  1.17506e-05
 Reference value :  1.17509e-05
 Reference value :  1.17515e-05
 Reference value :  1.17521e-05
 Reference value :  1.17527e-05
 Reference value :  1.17535e-05
 Reference value :  1.17545e-05
 Reference value :  1.17552e-05
 Reference value :  1.17561e-05
 Reference value :  1.17570e-05
 Reference value :  1.17579e-05
 Reference value :  1.17592e-05
 Reference value :  1.17610e-05
 Reference value :  1.17632e-05
 Reference value :  1.17663e-05
 Reference value :  1.17706e-05
 Reference value :  1.17792e-05
 Reference value :  1.17957e-05
 Reference value :  1.18242e-05
 Reference value :  1.18814e-05
 Reference value :  1.19956e-05
 Reference value :  1.20000e-05
 Reference value :  1.20000e-05
 Reference value :  1.20000e-05
 Reference value :  1.20001e-05
 Reference value :  1.20001e-05
 Reference value :  1.20001e-05
 Reference value :  1.20001e-05
 Reference value :  1.20001e-05
 Reference value :  1.20002e-05
 Reference value :  1.20002e-05
 Reference value :  1.20004e-05
 Reference value :  1.20005e-05
 Reference value :  1.20009e-05
 Reference value :  1.20014e-05
 Reference value :  1.20020e-05
 Reference value :  1.20025e-05
 Reference value :  1.20032e-05
 Reference value :  1.20039e-05
 Reference value :  1.20046e-05
 Reference value :  1.20055e-05
 Reference value :  1.20063e-05
 Reference value :  1.20075e-05
 Reference value :  1.20087e-05
 Reference value :  1.20100e-05
 Reference value :  1.20115e-05
 Reference value :  1.20129e-05
 Reference value :  1.20143e-05
 Reference value :  1.20158e-05
 Reference value :  1.20173e-05
 Reference value :  1.20191e-05
 Reference value :  1.20225e-05
 Reference value :  1.20286e-05
 Reference value :  1.20408e-05
 Reference value :  1.20652e-05
 Reference value :  1.21140e-05
 Reference value :  1.22115e-05
 Reference value :  1.22501e-05
 Reference value :  1.22501e-05
 Reference value :  1.22501e-05
 Reference value :  1.22502e-05
 Reference value :  1.22502e-05
 Reference value :  1.22502e-05
 Reference value :  1.22502e-05
 Reference value :  1.22502e-05
 Reference value :  1.22502e-05
 Reference value :  1.22502e-05
 Reference value :  1.22502e-05
 Reference value :  1.22503e-05
 Reference value :  1.22504e-05
 Reference value :  1.22506e-05
 Reference value :  1.22509e-05
 Reference value :  1.22515e-05
 Reference value :  1.22521e-05
 Reference value :  1.22527e-05
 Reference value :  1.22535e-05
 Reference value :  1.22545e-05
 Reference value :  1.22552e-05
 Reference value :  1.22561e-05
 Reference value :  1.22568e-05
 Reference value :  1.22577e-05
 Reference value :  1.22587e-05
 Reference value :  1.22598e-05
 Reference value :  1.22620e-05
 Reference value :  1.22644e-05
 Reference value :  1.22684e-05
 Reference value :  1.22733e-05
 Reference value :  1.22832e-05
 Reference value :  1.23030e-05
 Reference value :  1.23411e-05
 Reference value :  1.24173e-05
 Reference value :  1.25000e-05
 Reference value :  1.25000e-05
 Reference value :  1.25000e-05
 Reference value :  1.25001e-05
 Reference value :  1.25001e-05
 Reference value :  1.25001e-05
 Reference value :  1.25001e-05
 Reference value :  1.25001e-05
 Reference value :  1.25002e-05
 Reference value :  1.25002e-05
 Reference value :  1.25004e-05
 Reference value :  1.25005e-05
 Reference value :  1.25009e-05
 Reference value :  1.25014e-05
 Reference value :  1.25020e-05
 Reference value :  1.25025e-05
 Reference value :  1.25032e-05
 Reference value :  1.25039e-05
 Reference value :  1.25046e-05
 Reference value :  1.25055e-05
 Reference value :  1.25064e-05
 Reference value :  1.25073e-05
 Reference value :  1.25081e-05
 Reference value :  1.25090e-05
 Reference value :  1.25100e-05
 Reference value :  1.25112e-05
 Reference value :  1.25129e-05
 Reference value :  1.25153e-05
 Reference value :  1.25179e-05
 Reference value :  1.25200e-05
 Reference value :  1.25217e-05
 Reference value :  1.25234e-05
 Reference value :  1.25252e-05
 Reference value :  1.25269e-05
 Reference value :  1.25289e-05
 Reference value :  1.25309e-05
 Reference value :  1.25336e-05
 Reference value :  1.25373e-05
 Reference value :  1.25432e-05
 Reference value :  1.25535e-05
 Reference value :  1.25700e-05
 Reference value :  1.25920e-05
 Reference value :  1.26160e-05
 Reference value :  1.26404e-05
 Reference value :  1.26672e-05
 Reference value :  1.27010e-05
 Reference value :  1.27446e-05
 Reference value :  1.27501e-05
 Reference value :  1.27501e-05
 Reference value :  1.27501e-05
 Reference value :  1.27502e-05
 Reference value :  1.27502e-05
 Reference value :  1.27502e-05
 Reference value :  1.27502e-05
 Reference value :  1.27502e-05
 Reference value :  1.27502e-05
 Reference value :  1.27502e-05
 Reference value :  1.27502e-05
 Reference value :  1.27503e-05
 Reference value :  1.27504e-05
 Reference value :  1.27506e-05
 Reference value :  1.27509e-05
 Reference value :  1.27515e-05
 Reference value :  1.27521e-05
 Reference value :  1.27528e-05
 Reference value :  1.27535e-05
 Reference value :  1.27545e-05
 Reference value :  1.27553e-05
 Reference value :  1.27561e-05
 Reference value :  1.27570e-05
 Reference value :  1.27579e-05
 Reference value :  1.27592e-05
 Reference value :  1.27610e-05
 Reference value :  1.27632e-05
 Reference value :  1.27663e-05
 Reference value :  1.27707e-05
 Reference value :  1.27793e-05
 Reference value :  1.27960e-05
 Reference value :  1.28250e-05
 Reference value :  1.28828e-05
 Reference value :  1.29984e-05
 Reference value :  1.30000e-05
 Reference value :  1.30000e-05
 Reference value :  1.30000e-05
 Reference value :  1.30001e-05
 Reference value :  1.30001e-05
 Reference value :  1.30001e-05
 Reference value :  1.30001e-05
 Reference value :  1.30001e-05
 Reference value :  1.30002e-05
 Reference value :  1.30002e-05
 Reference value :  1.30004e-05
 Reference value :  1.30005e-05
 Reference value :  1.30009e-05
 Reference value :  1.30014e-05
 Reference value :  1.30020e-05
 Reference value :  1.30025e-05
 Reference value :  1.30032e-05
 Reference value :  1.30039e-05
 Reference value :  1.30046e-05
 Reference value :  1.30055e-05
 Reference value :  1.30063e-05
 Reference value :  1.30075e-05
 Reference value :  1.30087e-05
 Reference value :  1.30099e-05
 Reference value :  1.30113e-05
 Reference value :  1.30128e-05
 Reference value :  1.30143e-05
 Reference value :  1.30158e-05
 Reference value :  1.30174e-05
 Reference value :  1.30191e-05
 Reference value :  1.30223e-05
 Reference value :  1.30272e-05
 Reference value :  1.30368e-05
 Reference value :  1.30554e-05
 Reference value :  1.30918e-05
 Reference value :  1.31646e-05
 Reference value :  1.32501e-05
 Reference value :  1.32501e-05
 Reference value :  1.32501e-05
 Reference value :  1.32502e-05
 Reference value :  1.32502e-05
 Reference value :  1.32502e-05
 Reference value :  1.32502e-05
 Reference value :  1.32502e-05
 Reference value :  1.32502e-05
 Reference value :  1.32502e-05
 Reference value :  1.32502e-05
 Reference value :  1.32503e-05
 Reference value :  1.32504e-05
 Reference value :  1.32506e-05
 Reference value :  1.32509e-05
 Reference value :  1.32515e-05
 Reference value :  1.32521e-05
 Reference value :  1.32527e-05
 Reference value :  1.32535e-05
 Reference value :  1.32545e-05
 Reference value :  1.32552e-05
 Reference value :  1.32561e-05
 Reference value :  1.32568e-05
 Reference value :  1.32576e-05
 Reference value :  1.32586e-05
 Reference value :  1.32598e-05
 Reference value :  1.32620e-05
 Reference value :  1.32643e-05
 Reference value :  1.32683e-05
 Reference value :  1.32732e-05
 Reference value :  1.32830e-05
 Reference value :  1.33026e-05
 Reference value :  1.33401e-05
 Reference value :  1.34153e-05
 Reference value :  1.35000e-05
 Reference value :  1.35000e-05
 Reference value :  1.35000e-05
 Reference value :  1.35001e-05
 Reference value :  1.35001e-05
 Reference value :  1.35001e-05
 Reference value :  1.35001e-05
 Reference value :  1.35001e-05
 Reference value :  1.35002e-05
 Reference value :  1.35002e-05
 Reference value :  1.35004e-05
 Reference value :  1.35005e-05
 Reference value :  1.35009e-05
 Reference value :  1.35014e-05
 Reference value :  1.35020e-05
 Reference value :  1.35025e-05
 Reference value :  1.35032e-05
 Reference value :  1.35039e-05
 Reference value :  1.35047e-05
 Reference value :  1.35055e-05
 Reference value :  1.35064e-05
 Reference value :  1.35073e-05
 Reference value :  1.35081e-05
 Reference value :  1.35090e-05
 Reference value :  1.35100e-05
 Reference value :  1.35111e-05
 Reference value :  1.35130e-05
 Reference value :  1.35155e-05
 Reference value :  1.35180e-05
 Reference value :  1.35202e-05
 Reference value :  1.35219e-05
 Reference value :  1.35235e-05
 Reference value :  1.35251e-05
 Reference value :  1.35268e-05
 Reference value :  1.35287e-05
 Reference value :  1.35307e-05
 Reference value :  1.35334e-05
 Reference value :  1.35372e-05
 Reference value :  1.35433e-05
 Reference value :  1.35510e-05
 Reference value :  1.35590e-05
 Reference value :  1.35681e-05
 Reference value :  1.35782e-05
 Reference value :  1.35855e-05
 Reference value :  1.35935e-05
 Reference value :  1.36017e-05
 Reference value :  1.36082e-05
 Reference value :  1.36170e-05
 Reference value :  1.36285e-05
 Reference value :  1.36474e-05
 Reference value :  1.36706e-05
 Reference value :  1.36962e-05
 Reference value :  1.37241e-05
 Reference value :  1.37501e-05
 Reference value :  1.37501e-05
 Reference value :  1.37501e-05
 Reference value :  1.37502e-05
 Reference value :  1.37502e-05
 Reference value :  1.37502e-05
 Reference value :  1.37502e-05
 Reference value :  1.37502e-05
 Reference value :  1.37502e-05
 Reference value :  1.37502e-05
 Reference value :  1.37502e-05
 Reference value :  1.37503e-05
 Reference value :  1.37504e-05
 Reference value :  1.37506e-05
 Reference value :  1.37509e-05
 Reference value :  1.37515e-05
 Reference value :  1.37521e-05
 Reference value :  1.37528e-05
 Reference value :  1.37535e-05
 Reference value :  1.37545e-05
 Reference value :  1.37553e-05
 Reference value :  1.37561e-05
 Reference value :  1.37570e-05
 Reference value :  1.37579e-05
 Reference value :  1.37592e-05
 Reference value :  1.37610e-05
 Reference value :  1.37632e-05
 Reference value :  1.37663e-05
 Reference value :  1.37706e-05
 Reference value :  1.37792e-05
 Reference value :  1.37907e-05
 Reference value :  1.38135e-05
 Reference value :  1.38573e-05
 Reference value :  1.39313e-05
 Reference value :  1.40000e-05
 Reference value :  1.40000e-05
 Reference value :  1.40000e-05
 Reference value :  1.40001e-05
 Reference value :  1.40001e-05
 Reference value :  1.40001e-05
 Reference value :  1.40001e-05
 Reference value :  1.40001e-05
 Reference value :  1.40002e-05
 Reference value :  1.40002e-05
 Reference value :  1.40004e-05
 Reference value :  1.40005e-05
 Reference value :  1.40009e-05
 Reference value :  1.40014e-05
 Reference value :  1.40020e-05
 Reference value :  1.40025e-05
 Reference value :  1.40032e-05
 Reference value :  1.40039e-05
 Reference value :  1.40046e-05
 Reference value :  1.40055e-05
 Reference value :  1.40064e-05
 Reference value :  1.40076e-05
 Reference value :  1.40088e-05
 Reference value :  1.40100e-05
 Reference value :  1.40113e-05
 Reference value :  1.40127e-05
 Reference value :  1.40141e-05
 Reference value :  1.40155e-05
 Reference value :  1.40170e-05
 Reference value :  1.40187e-05
 Reference value :  1.40220e-05
 Reference value :  1.40270e-05
 Reference value :  1.40369e-05
 Reference value :  1.40568e-05
 Reference value :  1.40965e-05
 Reference value :  1.41759e-05
 Reference value :  1.42501e-05
 Reference value :  1.42501e-05
 Reference value :  1.42501e-05
 Reference value :  1.42502e-05
 Reference value :  1.42502e-05
 Reference value :  1.42502e-05
 Reference value :  1.42502e-05
 Reference value :  1.42502e-05
 Reference value :  1.42502e-05
 Reference value :  1.42502e-05
 Reference value :  1.42502e-05
 Reference value :  1.42503e-05
 Reference value :  1.42504e-05
 Reference value :  1.42506e-05
 Reference value :  1.42509e-05
 Reference value :  1.42515e-05
 Reference value :  1.42521e-05
 Reference value :  1.42527e-05
 Reference value :  1.42535e-05
 Reference value :  1.42545e-05
 Reference value :  1.42552e-05
 Reference value :  1.42561e-05
 Reference value :  1.42568e-05
 Reference value :  1.42577e-05
 Reference value :  1.42587e-05
 Reference value :  1.42598e-05
 Reference value :  1.42620e-05
 Reference value :  1.42644e-05
 Reference value :  1.42683e-05
 Reference value :  1.42733e-05
 Reference value :  1.42831e-05
 Reference value :  1.43029e-05
 Reference value :  1.43407e-05
 Reference value :  1.44165e-05
 Reference value :  1.45000e-05
 Reference value :  1.45000e-05
 Reference value :  1.45000e-05
 Reference value :  1.45001e-05
 Reference value :  1.45001e-05
 Reference value :  1.45001e-05
 Reference value :  1.45001e-05
 Reference value :  1.45001e-05
 Reference value :  1.45002e-05
 Reference value :  1.45002e-05
 Reference value :  1.45004e-05
 Reference value :  1.45005e-05
 Reference value :  1.45009e-05
 Reference value :  1.45014e-05
 Reference value :  1.45020e-05
 Reference value :  1.45025e-05
 Reference value :  1.45032e-05
 Reference value :  1.45039e-05
 Reference value :  1.45046e-05
 Reference value :  1.45055e-05
 Reference value :  1.45063e-05
 Reference value :  1.45072e-05
 Reference value :  1.45080e-05
 Reference value :  1.45089e-05
 Reference value :  1.45099e-05
 Reference value :  1.45110e-05
 Reference value :  1.45129e-05
 Reference value :  1.45153e-05
 Reference value :  1.45180e-05
 Reference value :  1.45203e-05
 Reference value :  1.45221e-05
 Reference value :  1.45238e-05
 Reference value :  1.45254e-05
 Reference value :  1.45271e-05
 Reference value :  1.45291e-05
 Reference value :  1.45312e-05
 Reference value :  1.45338e-05
 Reference value :  1.45376e-05
 Reference value :  1.45431e-05
 Reference value :  1.45486e-05
 Reference value :  1.45551e-05
 Reference value :  1.45625e-05
 Reference value :  1.45677e-05
 Reference value :  1.45729e-05
 Reference value :  1.45787e-05
 Reference value :  1.45851e-05
 Reference value :  1.45927e-05
 Reference value :  1.45995e-05
 Reference value :  1.46071e-05
 Reference value :  1.46222e-05
 Reference value :  1.46374e-05
 Reference value :  1.46636e-05
 Reference value :  1.47017e-05
 Reference value :  1.47501e-05
 Reference value :  1.47501e-05
 Reference value :  1.47501e-05
 Reference value :  1.47502e-05
 Reference value :  1.47502e-05
 Reference value :  1.47502e-05
 Reference value :  1.47502e-05
 Reference value :  1.47502e-05
 Reference value :  1.47502e-05
 Reference value :  1.47502e-05
 Reference value :  1.47502e-05
 Reference value :  1.47503e-05
 Reference value :  1.47504e-05
 Reference value :  1.47506e-05
 Reference value :  1.47509e-05
 Reference value :  1.47515e-05
 Reference value :  1.47521e-05
 Reference value :  1.47528e-05
 Reference value :  1.47535e-05
 Reference value :  1.47545e-05
 Reference value :  1.47552e-05
 Reference value :  1.47560e-05
 Reference value :  1.47569e-05
 Reference value :  1.47579e-05
 Reference value :  1.47591e-05
 Reference value :  1.47611e-05
 Reference value :  1.47632e-05
 Reference value :  1.47664e-05
 Reference value :  1.47706e-05
 Reference value :  1.47790e-05
 Reference value :  1.47957e-05
 Reference value :  1.48243e-05
 Reference value :  1.48813e-05
 Reference value :  1.49955e-05
 Reference value :  1.50000e-05
 Reference value :  1.50000e-05
 Reference value :  1.50000e-05
 Reference value :  1.50001e-05
 Reference value :  1.50001e-05
 Reference value :  1.50001e-05
 Reference value :  1.50001e-05
 Reference value :  1.50001e-05
 Reference value :  1.50002e-05
 Reference value :  1.50002e-05
 Reference value :  1.50004e-05
 Reference value :  1.50005e-05
 Reference value :  1.50009e-05
 Reference value :  1.50014e-05
 Reference value :  1.50020e-05
 Reference value :  1.50025e-05
 Reference value :  1.50032e-05
 Reference value :  1.50038e-05
 Reference value :  1.50046e-05
 Reference value :  1.50054e-05
 Reference value :  1.50063e-05
 Reference value :  1.50075e-05
 Reference value :  1.50087e-05
 Reference value :  1.50101e-05
 Reference value :  1.50116e-05
 Reference value :  1.50130e-05
 Reference value :  1.50144e-05
 Reference value :  1.50159e-05
 Reference value :  1.50176e-05
 Reference value :  1.50195e-05
 Reference value :  1.50230e-05
 Reference value :  1.50280e-05
 Reference value :  1.50377e-05
 Reference value :  1.50558e-05
 Reference value :  1.50893e-05
 Reference value :  1.51550e-05
 Reference value :  1.52501e-05
 Reference value :  1.52501e-05
 Reference value :  1.52501e-05
 Reference value :  1.52502e-05
 Reference value :  1.52502e-05
 Reference value :  1.52502e-05
 Reference value :  1.52502e-05
 Reference value :  1.52502e-05
 Reference value :  1.52502e-05
 Reference value :  1.52502e-05
 Reference value :  1.52502e-05
 Reference value :  1.52503e-05
 Reference value :  1.52504e-05
 Reference value :  1.52506e-05
 Reference value :  1.52509e-05
 Reference value :  1.52515e-05
 Reference value :  1.52521e-05
 Reference value :  1.52527e-05
 Reference value :  1.52535e-05
 Reference value :  1.52545e-05
 Reference value :  1.52552e-05
 Reference value :  1.52561e-05
 Reference value :  1.52568e-05
 Reference value :  1.52577e-05
 Reference value :  1.52587e-05
 Reference value :  1.52598e-05
 Reference value :  1.52609e-05
 Reference value :  1.52626e-05
 Reference value :  1.52645e-05
 Reference value :  1.52670e-05
 Reference value :  1.52702e-05
 Reference value :  1.52748e-05
 Reference value :  1.52841e-05
 Reference value :  1.53004e-05
 Reference value :  1.53329e-05
 Reference value :  1.53981e-05
 Reference value :  1.55000e-05
 Reference value :  1.55016e-05
 Reference value :  1.55048e-05
 Reference value :  1.55065e-05
 Reference value :  1.55081e-05
 Reference value :  1.55094e-05
 Reference value :  1.55106e-05
 Reference value :  1.55120e-05
 Reference value :  1.55135e-05
 Reference value :  1.55149e-05
 Reference value :  1.55165e-05
 Reference value :  1.55180e-05
 Reference value :  1.55197e-05
 Reference value :  1.55213e-05
 Reference value :  1.55225e-05
 Reference value :  1.55238e-05
 Reference value :  1.55252e-05
 Reference value :  1.55267e-05
 Reference value :  1.55281e-05
[...]
 Reference value :  1.74500e-04
 Reference value :  1.74500e-04
 Reference value :  1.74500e-04
 Reference value :  1.74500e-04
 Reference value :  1.74501e-04
 Reference value :  1.74501e-04
 Reference value :  1.74501e-04
 Reference value :  1.74502e-04
 Reference value :  1.74503e-04
 Reference value :  1.74503e-04
 Reference value :  1.74504e-04
 Reference value :  1.74505e-04
 Reference value :  1.74505e-04
 Reference value :  1.74506e-04
 Reference value :  1.74508e-04
 Reference value :  1.74509e-04
 Reference value :  1.74510e-04
 Reference value :  1.74511e-04
 Reference value :  1.74513e-04
 Reference value :  1.74514e-04
 Reference value :  1.74516e-04
 Reference value :  1.74517e-04
 Reference value :  1.74519e-04
 Reference value :  1.74522e-04
 Reference value :  1.74527e-04
 Reference value :  1.74537e-04
 Reference value :  1.74556e-04
 Reference value :  1.74593e-04
 Reference value :  1.74667e-04
 Reference value :  1.74750e-04
 Reference value :  1.74750e-04
 Reference value :  1.74750e-04
 Reference value :  1.74750e-04
 Reference value :  1.74750e-04
 Reference value :  1.74750e-04
 Reference value :  1.74750e-04
 Reference value :  1.74750e-04
 Reference value :  1.74750e-04
 Reference value :  1.74750e-04
 Reference value :  1.74750e-04
 Reference value :  1.74750e-04
 Reference value :  1.74750e-04
 Reference value :  1.74751e-04
 Reference value :  1.74751e-04
 Reference value :  1.74751e-04
 Reference value :  1.74752e-04
 Reference value :  1.74753e-04
 Reference value :  1.74753e-04
 Reference value :  1.74754e-04
 Reference value :  1.74755e-04
 Reference value :  1.74756e-04
 Reference value :  1.74757e-04
 Reference value :  1.74758e-04
 Reference value :  1.74759e-04
 Reference value :  1.74760e-04
 Reference value :  1.74761e-04
 Reference value :  1.74763e-04
 Reference value :  1.74764e-04
 Reference value :  1.74767e-04
 Reference value :  1.74770e-04
 Reference value :  1.74775e-04
 Reference value :  1.74784e-04
 Reference value :  1.74800e-04
 Reference value :  1.74831e-04
 Reference value :  1.74893e-04
 Reference value :  1.75000e-04
 Reference value :  1.75000e-04
 Reference value :  1.75000e-04
 Reference value :  1.75000e-04
 Reference value :  1.75000e-04
 Reference value :  1.75000e-04
 Reference value :  1.75000e-04
 Reference value :  1.75000e-04
 Reference value :  1.75000e-04
 Reference value :  1.75000e-04
 Reference value :  1.75000e-04
 Reference value :  1.75001e-04
 Reference value :  1.75001e-04
 Reference value :  1.75001e-04
 Reference value :  1.75002e-04
 Reference value :  1.75003e-04
 Reference value :  1.75003e-04
 Reference value :  1.75004e-04
 Reference value :  1.75005e-04
 Reference value :  1.75005e-04
 Reference value :  1.75006e-04
 Reference value :  1.75007e-04
 Reference value :  1.75008e-04
 Reference value :  1.75009e-04
 Reference value :  1.75010e-04
 Reference value :  1.75011e-04
 Reference value :  1.75013e-04
 Reference value :  1.75014e-04
 Reference value :  1.75015e-04
 Reference value :  1.75017e-04
 Reference value :  1.75018e-04
 Reference value :  1.75020e-04
 Reference value :  1.75021e-04
 Reference value :  1.75022e-04
 Reference value :  1.75023e-04
 Reference value :  1.75025e-04
 Reference value :  1.75026e-04
 Reference value :  1.75028e-04
 Reference value :  1.75030e-04
 Reference value :  1.75033e-04
 Reference value :  1.75036e-04
 Reference value :  1.75043e-04
 Reference value :  1.75050e-04
 Reference value :  1.75057e-04
 Reference value :  1.75065e-04
 Reference value :  1.75070e-04
 Reference value :  1.75075e-04
 Reference value :  1.75082e-04
 Reference value :  1.75087e-04
 Reference value :  1.75093e-04
 Reference value :  1.75105e-04
 Reference value :  1.75118e-04
 Reference value :  1.75139e-04
 Reference value :  1.75170e-04
 Reference value :  1.75193e-04
 Reference value :  1.75215e-04
 Reference value :  1.75237e-04
 Reference value :  1.75250e-04
 Reference value :  1.75250e-04
 Reference value :  1.75250e-04
 Reference value :  1.75250e-04
 Reference value :  1.75250e-04
 Reference value :  1.75250e-04
 Reference value :  1.75250e-04
 Reference value :  1.75250e-04
 Reference value :  1.75250e-04
 Reference value :  1.75250e-04
 Reference value :  1.75250e-04
 Reference value :  1.75250e-04
 Reference value :  1.75250e-04
 Reference value :  1.75251e-04
 Reference value :  1.75251e-04
 Reference value :  1.75251e-04
 Reference value :  1.75252e-04
 Reference value :  1.75253e-04
 Reference value :  1.75253e-04
 Reference value :  1.75255e-04
 Reference value :  1.75255e-04
 Reference value :  1.75256e-04
 Reference value :  1.75257e-04
 Reference value :  1.75258e-04
 Reference value :  1.75259e-04
 Reference value :  1.75261e-04
 Reference value :  1.75263e-04
 Reference value :  1.75266e-04
 Reference value :  1.75271e-04
 Reference value :  1.75279e-04
 Reference value :  1.75296e-04
 Reference value :  1.75324e-04
 Reference value :  1.75381e-04
 Reference value :  1.75449e-04
 Reference value :  1.75500e-04
 Reference value :  1.75500e-04
 Reference value :  1.75500e-04
 Reference value :  1.75500e-04
 Reference value :  1.75500e-04
 Reference value :  1.75500e-04
 Reference value :  1.75500e-04
 Reference value :  1.75500e-04
 Reference value :  1.75500e-04
 Reference value :  1.75500e-04
 Reference value :  1.75500e-04
 Reference value :  1.75501e-04
 Reference value :  1.75501e-04
 Reference value :  1.75501e-04
 Reference value :  1.75502e-04
 Reference value :  1.75503e-04
 Reference value :  1.75503e-04
 Reference value :  1.75504e-04
 Reference value :  1.75505e-04
 Reference value :  1.75505e-04
 Reference value :  1.75506e-04
 Reference value :  1.75508e-04
 Reference value :  1.75509e-04
 Reference value :  1.75510e-04
 Reference value :  1.75511e-04
 Reference value :  1.75513e-04
 Reference value :  1.75515e-04
 Reference value :  1.75516e-04
 Reference value :  1.75518e-04
 Reference value :  1.75520e-04
 Reference value :  1.75523e-04
 Reference value :  1.75528e-04
 Reference value :  1.75537e-04
 Reference value :  1.75554e-04
 Reference value :  1.75585e-04
 Reference value :  1.75645e-04
 Reference value :  1.75750e-04
 Reference value :  1.75750e-04
 Reference value :  1.75750e-04
 Reference value :  1.75750e-04
 Reference value :  1.75750e-04
 Reference value :  1.75750e-04
 Reference value :  1.75750e-04
 Reference value :  1.75750e-04
 Reference value :  1.75750e-04
 Reference value :  1.75750e-04
 Reference value :  1.75750e-04
 Reference value :  1.75750e-04
 Reference value :  1.75750e-04
 Reference value :  1.75751e-04
 Reference value :  1.75751e-04
 Reference value :  1.75751e-04
 Reference value :  1.75752e-04
 Reference value :  1.75753e-04
 Reference value :  1.75753e-04
 Reference value :  1.75754e-04
 Reference value :  1.75755e-04
 Reference value :  1.75756e-04
 Reference value :  1.75757e-04
 Reference value :  1.75758e-04
 Reference value :  1.75759e-04
 Reference value :  1.75760e-04
 Reference value :  1.75761e-04
 Reference value :  1.75763e-04
 Reference value :  1.75764e-04
 Reference value :  1.75767e-04
 Reference value :  1.75770e-04
 Reference value :  1.75775e-04
 Reference value :  1.75784e-04
 Reference value :  1.75800e-04
 Reference value :  1.75833e-04
 Reference value :  1.75898e-04
 Reference value :  1.76000e-04
 Reference value :  1.76000e-04
 Reference value :  1.76000e-04
 Reference value :  1.76000e-04
 Reference value :  1.76000e-04
 Reference value :  1.76000e-04
 Reference value :  1.76000e-04
 Reference value :  1.76000e-04
 Reference value :  1.76000e-04
 Reference value :  1.76000e-04
 Reference value :  1.76000e-04
 Reference value :  1.76001e-04
 Reference value :  1.76001e-04
 Reference value :  1.76001e-04
 Reference value :  1.76002e-04
 Reference value :  1.76003e-04
 Reference value :  1.76003e-04
 Reference value :  1.76004e-04
 Reference value :  1.76005e-04
 Reference value :  1.76005e-04
 Reference value :  1.76006e-04
 Reference value :  1.76007e-04
 Reference value :  1.76008e-04
 Reference value :  1.76009e-04
 Reference value :  1.76010e-04
 Reference value :  1.76011e-04
 Reference value :  1.76012e-04
 Reference value :  1.76014e-04
 Reference value :  1.76015e-04
 Reference value :  1.76017e-04
 Reference value :  1.76019e-04
 Reference value :  1.76021e-04
 Reference value :  1.76022e-04
 Reference value :  1.76023e-04
 Reference value :  1.76024e-04
 Reference value :  1.76026e-04
 Reference value :  1.76027e-04
 Reference value :  1.76028e-04
 Reference value :  1.76031e-04
 Reference value :  1.76033e-04
 Reference value :  1.76037e-04
 Reference value :  1.76042e-04
 Reference value :  1.76047e-04
 Reference value :  1.76052e-04
 Reference value :  1.76058e-04
 Reference value :  1.76062e-04
 Reference value :  1.76067e-04
 Reference value :  1.76072e-04
 Reference value :  1.76079e-04
 Reference value :  1.76085e-04
 Reference value :  1.76098e-04
 Reference value :  1.76118e-04
 Reference value :  1.76148e-04
 Reference value :  1.76201e-04
 Reference value :  1.76250e-04
 Reference value :  1.76250e-04
 Reference value :  1.76250e-04
 Reference value :  1.76250e-04
 Reference value :  1.76250e-04
 Reference value :  1.76250e-04
 Reference value :  1.76250e-04
 Reference value :  1.76250e-04
 Reference value :  1.76250e-04
 Reference value :  1.76250e-04
 Reference value :  1.76250e-04
 Reference value :  1.76250e-04
 Reference value :  1.76250e-04
 Reference value :  1.76251e-04
 Reference value :  1.76251e-04
 Reference value :  1.76251e-04
 Reference value :  1.76252e-04
 Reference value :  1.76253e-04
 Reference value :  1.76253e-04
 Reference value :  1.76254e-04
 Reference value :  1.76255e-04
 Reference value :  1.76256e-04
 Reference value :  1.76257e-04
 Reference value :  1.76258e-04
 Reference value :  1.76259e-04
 Reference value :  1.76261e-04
 Reference value :  1.76263e-04
 Reference value :  1.76266e-04
 Reference value :  1.76271e-04
 Reference value :  1.76279e-04
 Reference value :  1.76296e-04
 Reference value :  1.76324e-04
 Reference value :  1.76381e-04
 Reference value :  1.76496e-04
 Reference value :  1.76500e-04
 Reference value :  1.76500e-04
 Reference value :  1.76500e-04
 Reference value :  1.76500e-04
 Reference value :  1.76500e-04
 Reference value :  1.76500e-04
 Reference value :  1.76500e-04
 Reference value :  1.76500e-04
 Reference value :  1.76500e-04
 Reference value :  1.76500e-04
 Reference value :  1.76500e-04
 Reference value :  1.76501e-04
 Reference value :  1.76501e-04
 Reference value :  1.76501e-04
 Reference value :  1.76502e-04
 Reference value :  1.76503e-04
 Reference value :  1.76503e-04
 Reference value :  1.76504e-04
 Reference value :  1.76505e-04
 Reference value :  1.76505e-04
 Reference value :  1.76506e-04
 Reference value :  1.76508e-04
 Reference value :  1.76509e-04
 Reference value :  1.76510e-04
 Reference value :  1.76511e-04
 Reference value :  1.76513e-04
 Reference value :  1.76514e-04
 Reference value :  1.76516e-04
 Reference value :  1.76517e-04
 Reference value :  1.76519e-04
 Reference value :  1.76523e-04
 Reference value :  1.76528e-04
 Reference value :  1.76537e-04
 Reference value :  1.76555e-04
 Reference value :  1.76590e-04
 Reference value :  1.76658e-04
 Reference value :  1.76750e-04
 Reference value :  1.76750e-04
 Reference value :  1.76750e-04
 Reference value :  1.76750e-04
 Reference value :  1.76750e-04
 Reference value :  1.76750e-04
 Reference value :  1.76750e-04
 Reference value :  1.76750e-04
 Reference value :  1.76750e-04
 Reference value :  1.76750e-04
 Reference value :  1.76750e-04
 Reference value :  1.76750e-04
 Reference value :  1.76750e-04
 Reference value :  1.76751e-04
 Reference value :  1.76751e-04
 Reference value :  1.76751e-04
 Reference value :  1.76752e-04
 Reference value :  1.76753e-04
 Reference value :  1.76753e-04
 Reference value :  1.76754e-04
 Reference value :  1.76755e-04
 Reference value :  1.76756e-04
 Reference value :  1.76757e-04
 Reference value :  1.76758e-04
 Reference value :  1.76759e-04
 Reference value :  1.76760e-04
 Reference value :  1.76762e-04
 Reference value :  1.76764e-04
 Reference value :  1.76768e-04
 Reference value :  1.76773e-04
 Reference value :  1.76783e-04
 Reference value :  1.76803e-04
 Reference value :  1.76841e-04
 Reference value :  1.76917e-04
 Reference value :  1.77000e-04
 Reference value :  1.77000e-04
 Reference value :  1.77000e-04
 Reference value :  1.77000e-04
 Reference value :  1.77000e-04
 Reference value :  1.77000e-04
 Reference value :  1.77000e-04
 Reference value :  1.77000e-04
 Reference value :  1.77000e-04
 Reference value :  1.77000e-04
 Reference value :  1.77000e-04
 Reference value :  1.77001e-04
 Reference value :  1.77001e-04
 Reference value :  1.77001e-04
 Reference value :  1.77002e-04
 Reference value :  1.77003e-04
 Reference value :  1.77003e-04
 Reference value :  1.77004e-04
 Reference value :  1.77005e-04
 Reference value :  1.77005e-04
 Reference value :  1.77006e-04
 Reference value :  1.77007e-04
 Reference value :  1.77008e-04
 Reference value :  1.77009e-04
 Reference value :  1.77010e-04
 Reference value :  1.77011e-04
 Reference value :  1.77013e-04
 Reference value :  1.77015e-04
 Reference value :  1.77018e-04
 Reference value :  1.77020e-04
 Reference value :  1.77022e-04
 Reference value :  1.77024e-04
 Reference value :  1.77026e-04
 Reference value :  1.77027e-04
 Reference value :  1.77029e-04
 Reference value :  1.77032e-04
 Reference value :  1.77034e-04
 Reference value :  1.77038e-04
 Reference value :  1.77043e-04
 Reference value :  1.77049e-04
 Reference value :  1.77053e-04
 Reference value :  1.77058e-04
 Reference value :  1.77064e-04
 Reference value :  1.77072e-04
 Reference value :  1.77079e-04
 Reference value :  1.77087e-04
 Reference value :  1.77095e-04
 Reference value :  1.77111e-04
 Reference value :  1.77130e-04
 Reference value :  1.77163e-04
 Reference value :  1.77222e-04
 Reference value :  1.77250e-04
 Reference value :  1.77250e-04
 Reference value :  1.77250e-04
 Reference value :  1.77250e-04
 Reference value :  1.77250e-04
 Reference value :  1.77250e-04
 Reference value :  1.77250e-04
 Reference value :  1.77250e-04
 Reference value :  1.77250e-04
 Reference value :  1.77250e-04
 Reference value :  1.77250e-04
 Reference value :  1.77250e-04
 Reference value :  1.77250e-04
 Reference value :  1.77251e-04
 Reference value :  1.77251e-04
 Reference value :  1.77251e-04
 Reference value :  1.77252e-04
 Reference value :  1.77253e-04
 Reference value :  1.77253e-04
 Reference value :  1.77255e-04
 Reference value :  1.77255e-04
 Reference value :  1.77256e-04
 Reference value :  1.77257e-04
 Reference value :  1.77258e-04
 Reference value :  1.77259e-04
 Reference value :  1.77261e-04
 Reference value :  1.77263e-04
 Reference value :  1.77267e-04
 Reference value :  1.77271e-04
 Reference value :  1.77279e-04
 Reference value :  1.77296e-04
 Reference value :  1.77324e-04
 Reference value :  1.77380e-04
 Reference value :  1.77493e-04
 Reference value :  1.77500e-04
 Reference value :  1.77500e-04
 Reference value :  1.77500e-04
 Reference value :  1.77500e-04
 Reference value :  1.77500e-04
 Reference value :  1.77500e-04
 Reference value :  1.77500e-04
 Reference value :  1.77500e-04
 Reference value :  1.77500e-04
 Reference value :  1.77500e-04
 Reference value :  1.77500e-04
 Reference value :  1.77501e-04
 Reference value :  1.77501e-04
 Reference value :  1.77501e-04
 Reference value :  1.77502e-04
 Reference value :  1.77502e-04
 Reference value :  1.77503e-04
 Reference value :  1.77504e-04
 Reference value :  1.77505e-04
 Reference value :  1.77505e-04
 Reference value :  1.77506e-04
 Reference value :  1.77508e-04
 Reference value :  1.77509e-04
 Reference value :  1.77510e-04
 Reference value :  1.77512e-04
 Reference value :  1.77513e-04
 Reference value :  1.77514e-04
 Reference value :  1.77516e-04
 Reference value :  1.77518e-04
 Reference value :  1.77519e-04
 Reference value :  1.77523e-04
 Reference value :  1.77528e-04
 Reference value :  1.77538e-04
 Reference value :  1.77557e-04
 Reference value :  1.77594e-04
 Reference value :  1.77668e-04
 Reference value :  1.77750e-04
 Reference value :  1.77750e-04
 Reference value :  1.77750e-04
 Reference value :  1.77750e-04
 Reference value :  1.77750e-04
 Reference value :  1.77750e-04
 Reference value :  1.77750e-04
 Reference value :  1.77750e-04
 Reference value :  1.77750e-04
 Reference value :  1.77750e-04
 Reference value :  1.77750e-04
 Reference value :  1.77750e-04
 Reference value :  1.77750e-04
 Reference value :  1.77751e-04
 Reference value :  1.77751e-04
 Reference value :  1.77751e-04
 Reference value :  1.77752e-04
 Reference value :  1.77753e-04
 Reference value :  1.77753e-04
 Reference value :  1.77754e-04
 Reference value :  1.77755e-04
 Reference value :  1.77756e-04
 Reference value :  1.77757e-04
 Reference value :  1.77758e-04
 Reference value :  1.77759e-04
 Reference value :  1.77760e-04
 Reference value :  1.77761e-04
 Reference value :  1.77763e-04
 Reference value :  1.77764e-04
 Reference value :  1.77767e-04
 Reference value :  1.77770e-04
 Reference value :  1.77775e-04
 Reference value :  1.77784e-04
 Reference value :  1.77800e-04
 Reference value :  1.77831e-04
 Reference value :  1.77893e-04
 Reference value :  1.78000e-04
 Reference value :  1.78000e-04
 Reference value :  1.78000e-04
 Reference value :  1.78000e-04
 Reference value :  1.78000e-04
 Reference value :  1.78000e-04
 Reference value :  1.78000e-04
 Reference value :  1.78000e-04
 Reference value :  1.78000e-04
 Reference value :  1.78000e-04
 Reference value :  1.78000e-04
 Reference value :  1.78001e-04
 Reference value :  1.78001e-04
 Reference value :  1.78001e-04
 Reference value :  1.78002e-04
 Reference value :  1.78003e-04
 Reference value :  1.78003e-04
 Reference value :  1.78004e-04
 Reference value :  1.78005e-04
 Reference value :  1.78005e-04
 Reference value :  1.78006e-04
 Reference value :  1.78007e-04
 Reference value :  1.78008e-04
 Reference value :  1.78009e-04
 Reference value :  1.78010e-04
 Reference value :  1.78011e-04
 Reference value :  1.78013e-04
 Reference value :  1.78015e-04
 Reference value :  1.78016e-04
 Reference value :  1.78018e-04
 Reference value :  1.78020e-04
 Reference value :  1.78021e-04
 Reference value :  1.78023e-04
 Reference value :  1.78026e-04
 Reference value :  1.78029e-04
 Reference value :  1.78033e-04
 Reference value :  1.78039e-04
 Reference value :  1.78050e-04
 Reference value :  1.78065e-04
 Reference value :  1.78080e-04
 Reference value :  1.78100e-04
 Reference value :  1.78120e-04
 Reference value :  1.78139e-04
 Reference value :  1.78157e-04
 Reference value :  1.78178e-04
 Reference value :  1.78197e-04
 Reference value :  1.78234e-04
 Reference value :  1.78250e-04
 Reference value :  1.78250e-04
 Reference value :  1.78250e-04
 Reference value :  1.78250e-04
 Reference value :  1.78250e-04
 Reference value :  1.78250e-04
 Reference value :  1.78250e-04
 Reference value :  1.78250e-04
 Reference value :  1.78250e-04
 Reference value :  1.78250e-04
 Reference value :  1.78250e-04
 Reference value :  1.78250e-04
 Reference value :  1.78250e-04
 Reference value :  1.78251e-04
 Reference value :  1.78251e-04
 Reference value :  1.78251e-04
 Reference value :  1.78252e-04
 Reference value :  1.78253e-04
 Reference value :  1.78254e-04
 Reference value :  1.78255e-04
 Reference value :  1.78256e-04
 Reference value :  1.78257e-04
 Reference value :  1.78259e-04
 Reference value :  1.78260e-04
 Reference value :  1.78263e-04
 Reference value :  1.78265e-04
 Reference value :  1.78270e-04
 Reference value :  1.78276e-04
 Reference value :  1.78290e-04
 Reference value :  1.78317e-04
 Reference value :  1.78369e-04
 Reference value :  1.78473e-04
 Reference value :  1.78500e-04
No. of Data Rows : 27755
ngspice-44 done
