
Note: Compatibility modes selected: hs a


Circuit: ** sch_path: /home/ece/cace/sar-adc-using-sky130-pdk/runs/run_2025-09-10_19-58-20/parameters/sampling_rate/run_27/sampling_rate.sch

option SCALE: Scale is set to 1e-06 for instance and model parameters
option SCALE: Scale is set to 1e-06 for instance and model parameters
option SCALE: Scale is set to 1e-06 for instance and model parameters
option SCALE: Scale is set to 1e-06 for instance and model parameters
Doing analysis at TEMP = 27.000000 and TNOM = 27.000000

Using KLU as Direct Linear Solver
Operating point simulation skipped by 'uic',
  now using transient initial conditions.
 Reference value :  1.00000e-12
 Reference value :  1.08400e-12
 Reference value :  2.29226e-12
 Reference value :  6.29128e-12
 Reference value :  3.48306e-11
 Reference value :  1.05675e-10
 Reference value :  1.85132e-10
 Reference value :  4.57553e-10
 Reference value :  9.66200e-10
 Reference value :  1.87873e-09
 Reference value :  3.21561e-09
 Reference value :  5.06454e-09
 Reference value :  6.73835e-09
 Reference value :  9.66446e-09
 Reference value :  1.19013e-08
 Reference value :  1.38246e-08
 Reference value :  2.13582e-08
 Reference value :  3.30811e-08
 Reference value :  6.05568e-08
 Reference value :  1.81031e-07
 Reference value :  2.22211e-07
 Reference value :  2.50100e-07
 Reference value :  2.50130e-07
 Reference value :  2.50200e-07
 Reference value :  2.50222e-07
 Reference value :  2.50312e-07
 Reference value :  2.50540e-07
 Reference value :  2.50991e-07
 Reference value :  2.51918e-07
 Reference value :  2.53048e-07
 Reference value :  2.54339e-07
 Reference value :  2.56298e-07
 Reference value :  2.60462e-07
 Reference value :  2.74605e-07
 Reference value :  3.39137e-07
 Reference value :  5.00000e-07
 Reference value :  5.00030e-07
 Reference value :  5.00100e-07
 Reference value :  5.00156e-07
 Reference value :  5.00537e-07
 Reference value :  5.00857e-07
 Reference value :  5.01584e-07
 Reference value :  5.02505e-07
 Reference value :  5.03582e-07
 Reference value :  5.05654e-07
 Reference value :  5.08639e-07
 Reference value :  5.09859e-07
 Reference value :  5.12586e-07
 Reference value :  5.16084e-07
 Reference value :  5.25832e-07
 Reference value :  5.68615e-07
 Reference value :  7.50100e-07
 Reference value :  7.50170e-07
 Reference value :  7.50224e-07
 Reference value :  7.50448e-07
 Reference value :  7.51108e-07
 Reference value :  7.52040e-07
 Reference value :  7.53260e-07
 Reference value :  7.53780e-07
 Reference value :  7.54923e-07
 Reference value :  7.56264e-07
 Reference value :  7.57938e-07
 Reference value :  7.60511e-07
 Reference value :  7.68226e-07
 Reference value :  8.12158e-07
 Reference value :  1.00000e-06
 Reference value :  1.00003e-06
 Reference value :  1.00011e-06
 Reference value :  1.00016e-06
 Reference value :  1.00054e-06
 Reference value :  1.00086e-06
 Reference value :  1.00163e-06
 Reference value :  1.00308e-06
 Reference value :  1.00419e-06
 Reference value :  1.00519e-06
 Reference value :  1.00710e-06
 Reference value :  1.00807e-06
 Reference value :  1.01010e-06
 Reference value :  1.01198e-06
 Reference value :  1.01373e-06
 Reference value :  1.01530e-06
 Reference value :  1.01812e-06
 Reference value :  1.02091e-06
 Reference value :  1.04142e-06
 Reference value :  1.21710e-06
 Reference value :  1.25013e-06
 Reference value :  1.25021e-06
 Reference value :  1.25045e-06
 Reference value :  1.25157e-06
 Reference value :  1.25252e-06
 Reference value :  1.25377e-06
 Reference value :  1.25509e-06
 Reference value :  1.25816e-06
 Reference value :  1.26630e-06
 Reference value :  1.29903e-06
 Reference value :  1.30879e-06
 Reference value :  1.31793e-06
 Reference value :  1.33679e-06
 Reference value :  1.35325e-06
 Reference value :  1.44614e-06
 Reference value :  1.50003e-06
 Reference value :  1.50011e-06
 Reference value :  1.50022e-06
 Reference value :  1.50086e-06
 Reference value :  1.50163e-06
 Reference value :  1.50306e-06
 Reference value :  1.50488e-06
 Reference value :  1.50630e-06
 Reference value :  1.50794e-06
 Reference value :  1.51093e-06
 Reference value :  1.52665e-06
 Reference value :  1.75010e-06
 Reference value :  1.75017e-06
 Reference value :  1.75022e-06
 Reference value :  1.75045e-06
 Reference value :  1.75110e-06
 Reference value :  1.75203e-06
 Reference value :  1.75325e-06
 Reference value :  1.75377e-06
 Reference value :  1.75491e-06
 Reference value :  1.75549e-06
 Reference value :  1.75637e-06
 Reference value :  1.75727e-06
 Reference value :  1.76131e-06
 Reference value :  1.77023e-06
 Reference value :  1.80411e-06
 Reference value :  2.00000e-06
 Reference value :  2.00003e-06
 Reference value :  2.00011e-06
 Reference value :  2.00022e-06
 Reference value :  2.00086e-06
 Reference value :  2.00163e-06
 Reference value :  2.00307e-06
 Reference value :  2.00418e-06
 Reference value :  2.00524e-06
 Reference value :  2.00731e-06
 Reference value :  2.01027e-06
 Reference value :  2.01341e-06
 Reference value :  2.01455e-06
 Reference value :  2.01650e-06
 Reference value :  2.01991e-06
 Reference value :  2.03936e-06
 Reference value :  2.06317e-06
 Reference value :  2.07248e-06
 Reference value :  2.08642e-06
 Reference value :  2.09916e-06
 Reference value :  2.15436e-06
 Reference value :  2.25013e-06
 Reference value :  2.25020e-06
 Reference value :  2.25026e-06
 Reference value :  2.25045e-06
 Reference value :  2.25110e-06
 Reference value :  2.25203e-06
 Reference value :  2.25324e-06
 Reference value :  2.25433e-06
 Reference value :  2.25646e-06
 Reference value :  2.26580e-06
 Reference value :  2.36567e-06
 Reference value :  2.50007e-06
 Reference value :  2.50016e-06
 Reference value :  2.50054e-06
 Reference value :  2.50086e-06
 Reference value :  2.50119e-06
 Reference value :  2.50159e-06
 Reference value :  2.50251e-06
 Reference value :  2.50300e-06
 Reference value :  2.50490e-06
 Reference value :  2.50625e-06
 Reference value :  2.50887e-06
 Reference value :  2.51216e-06
 Reference value :  2.63201e-06
 Reference value :  2.75020e-06
 Reference value :  2.75070e-06
 Reference value :  2.75251e-06
 Reference value :  2.75436e-06
 Reference value :  2.75623e-06
 Reference value :  2.76045e-06
 Reference value :  2.78501e-06
 Reference value :  3.00001e-06
 Reference value :  3.00011e-06
 Reference value :  3.00022e-06
 Reference value :  3.00086e-06
 Reference value :  3.00209e-06
 Reference value :  3.00308e-06
 Reference value :  3.00419e-06
 Reference value :  3.00519e-06
 Reference value :  3.00639e-06
 Reference value :  3.00710e-06
 Reference value :  3.00807e-06
 Reference value :  3.01010e-06
 Reference value :  3.01197e-06
 Reference value :  3.01371e-06
 Reference value :  3.01526e-06
 Reference value :  3.01708e-06
 Reference value :  3.01905e-06
 Reference value :  3.02578e-06
 Reference value :  3.05753e-06
 Reference value :  3.08964e-06
 Reference value :  3.10190e-06
 Reference value :  3.11113e-06
 Reference value :  3.12999e-06
 Reference value :  3.16298e-06
 Reference value :  3.23584e-06
 Reference value :  3.25013e-06
 Reference value :  3.25021e-06
 Reference value :  3.25032e-06
 Reference value :  3.25157e-06
 Reference value :  3.25324e-06
 Reference value :  3.25438e-06
 Reference value :  3.25502e-06
 Reference value :  3.25803e-06
 Reference value :  3.27245e-06
 Reference value :  3.36509e-06
 Reference value :  3.50003e-06
 Reference value :  3.50011e-06
 Reference value :  3.50022e-06
 Reference value :  3.50086e-06
 Reference value :  3.50163e-06
 Reference value :  3.50258e-06
 Reference value :  3.50307e-06
 Reference value :  3.50418e-06
 Reference value :  3.50568e-06
 Reference value :  3.50630e-06
 Reference value :  3.50794e-06
 Reference value :  3.50982e-06
 Reference value :  3.51441e-06
 Reference value :  3.57205e-06
 Reference value :  3.75013e-06
 Reference value :  3.75020e-06
 Reference value :  3.75022e-06
 Reference value :  3.75045e-06
 Reference value :  3.75157e-06
 Reference value :  3.75251e-06
 Reference value :  3.75377e-06
 Reference value :  3.75549e-06
 Reference value :  3.75725e-06
 Reference value :  3.76451e-06
 Reference value :  3.84785e-06
 Reference value :  4.00007e-06
 Reference value :  4.00016e-06
 Reference value :  4.00086e-06
 Reference value :  4.00210e-06
 Reference value :  4.00307e-06
 Reference value :  4.00524e-06
 Reference value :  4.00866e-06
 Reference value :  4.01188e-06
 Reference value :  4.01454e-06
 Reference value :  4.01647e-06
 Reference value :  4.01867e-06
 Reference value :  4.02438e-06
 Reference value :  4.03520e-06
 Reference value :  4.04602e-06
 Reference value :  4.05519e-06
 Reference value :  4.06793e-06
 Reference value :  4.07953e-06
 Reference value :  4.09273e-06
 Reference value :  4.20124e-06
 Reference value :  4.25013e-06
 Reference value :  4.25021e-06
 Reference value :  4.25032e-06
 Reference value :  4.25109e-06
 Reference value :  4.25203e-06
 Reference value :  4.25324e-06
 Reference value :  4.25375e-06
 Reference value :  4.25502e-06
 Reference value :  4.25801e-06
 Reference value :  4.26584e-06
 Reference value :  4.31244e-06
 Reference value :  4.50000e-06
 Reference value :  4.50003e-06
 Reference value :  4.50010e-06
 Reference value :  4.50016e-06
 Reference value :  4.50054e-06
 Reference value :  4.50119e-06
 Reference value :  4.50204e-06
 Reference value :  4.50300e-06
 Reference value :  4.50490e-06
 Reference value :  4.50625e-06
 Reference value :  4.50795e-06
 Reference value :  4.50986e-06
 Reference value :  4.51451e-06
 Reference value :  4.54037e-06
 Reference value :  4.62571e-06
 Reference value :  4.75011e-06
 Reference value :  4.75017e-06
 Reference value :  4.75022e-06
 Reference value :  4.75045e-06
 Reference value :  4.75109e-06
 Reference value :  4.75203e-06
 Reference value :  4.75324e-06
 Reference value :  4.75436e-06
 Reference value :  4.75548e-06
 Reference value :  4.75623e-06
 Reference value :  4.75786e-06
 Reference value :  4.76206e-06
 Reference value :  4.77428e-06
 Reference value :  4.90782e-06
 Reference value :  5.00003e-06
 Reference value :  5.00011e-06
 Reference value :  5.00022e-06
 Reference value :  5.00086e-06
 Reference value :  5.00163e-06
 Reference value :  5.00258e-06
 Reference value :  5.00364e-06
 Reference value :  5.00471e-06
 Reference value :  5.00519e-06
 Reference value :  5.00640e-06
 Reference value :  5.00807e-06
 Reference value :  5.01010e-06
 Reference value :  5.01197e-06
 Reference value :  5.01370e-06
 Reference value :  5.01525e-06
 Reference value :  5.01706e-06
 Reference value :  5.02080e-06
 Reference value :  5.03043e-06
 Reference value :  5.04156e-06
 Reference value :  5.04970e-06
 Reference value :  5.05575e-06
 Reference value :  5.10326e-06
 Reference value :  5.25011e-06
 Reference value :  5.25020e-06
 Reference value :  5.25032e-06
 Reference value :  5.25156e-06
 Reference value :  5.25251e-06
 Reference value :  5.25377e-06
 Reference value :  5.25501e-06
 Reference value :  5.25803e-06
 Reference value :  5.27240e-06
 Reference value :  5.50000e-06
 Reference value :  5.50007e-06
 Reference value :  5.50012e-06
 Reference value :  5.50035e-06
 Reference value :  5.50086e-06
 Reference value :  5.50163e-06
 Reference value :  5.50258e-06
 Reference value :  5.50363e-06
 Reference value :  5.50630e-06
 Reference value :  5.50794e-06
 Reference value :  5.51093e-06
 Reference value :  5.54163e-06
 Reference value :  5.75013e-06
 Reference value :  5.75021e-06
 Reference value :  5.75032e-06
 Reference value :  5.75109e-06
 Reference value :  5.75203e-06
 Reference value :  5.75324e-06
 Reference value :  5.75377e-06
 Reference value :  5.75490e-06
 Reference value :  5.75634e-06
 Reference value :  5.76125e-06
 Reference value :  5.80305e-06
 Reference value :  5.93535e-06
 Reference value :  6.00001e-06
 Reference value :  6.00007e-06
 Reference value :  6.00011e-06
 Reference value :  6.00022e-06
 Reference value :  6.00086e-06
 Reference value :  6.00210e-06
 Reference value :  6.00307e-06
 Reference value :  6.00418e-06
 Reference value :  6.00524e-06
 Reference value :  6.00732e-06
 Reference value :  6.01030e-06
 Reference value :  6.01341e-06
 Reference value :  6.01557e-06
 Reference value :  6.01758e-06
 Reference value :  6.02187e-06
 Reference value :  6.03532e-06
 Reference value :  6.06139e-06
 Reference value :  6.07519e-06
 Reference value :  6.09782e-06
 Reference value :  6.15908e-06
 Reference value :  6.25010e-06
 Reference value :  6.25017e-06
 Reference value :  6.25022e-06
 Reference value :  6.25045e-06
 Reference value :  6.25156e-06
 Reference value :  6.25202e-06
 Reference value :  6.25375e-06
 Reference value :  6.25569e-06
 Reference value :  6.25967e-06
 Reference value :  6.28586e-06
 Reference value :  6.50000e-06
 Reference value :  6.50010e-06
 Reference value :  6.50016e-06
 Reference value :  6.50086e-06
 Reference value :  6.50204e-06
 Reference value :  6.50300e-06
 Reference value :  6.50490e-06
 Reference value :  6.50625e-06
 Reference value :  6.50887e-06
 Reference value :  6.51225e-06
 Reference value :  6.56878e-06
 Reference value :  6.75011e-06
 Reference value :  6.75020e-06
 Reference value :  6.75045e-06
 Reference value :  6.75156e-06
 Reference value :  6.75203e-06
 Reference value :  6.75324e-06
 Reference value :  6.75376e-06
 Reference value :  6.75490e-06
 Reference value :  6.75622e-06
 Reference value :  6.75889e-06
 Reference value :  6.76205e-06
 Reference value :  6.77424e-06
 Reference value :  6.83596e-06
 Reference value :  7.00001e-06
 Reference value :  7.00007e-06
 Reference value :  7.00011e-06
 Reference value :  7.00016e-06
 Reference value :  7.00035e-06
 Reference value :  7.00086e-06
 Reference value :  7.00163e-06
 Reference value :  7.00258e-06
 Reference value :  7.00364e-06
 Reference value :  7.00471e-06
 Reference value :  7.00519e-06
 Reference value :  7.00640e-06
 Reference value :  7.00807e-06
 Reference value :  7.01010e-06
 Reference value :  7.01197e-06
 Reference value :  7.01369e-06
 Reference value :  7.01528e-06
 Reference value :  7.01712e-06
 Reference value :  7.01914e-06
 Reference value :  7.02268e-06
 Reference value :  7.03841e-06
 Reference value :  7.09005e-06
 Reference value :  7.11109e-06
 Reference value :  7.13802e-06
 Reference value :  7.17311e-06
 Reference value :  7.25010e-06
 Reference value :  7.25017e-06
 Reference value :  7.25022e-06
 Reference value :  7.25045e-06
 Reference value :  7.25156e-06
 Reference value :  7.25251e-06
 Reference value :  7.25323e-06
 Reference value :  7.25377e-06
 Reference value :  7.25501e-06
 Reference value :  7.25802e-06
 Reference value :  7.26580e-06
 Reference value :  7.31177e-06
 Reference value :  7.50000e-06
 Reference value :  7.50007e-06
 Reference value :  7.50011e-06
 Reference value :  7.50016e-06
 Reference value :  7.50035e-06
 Reference value :  7.50086e-06
 Reference value :  7.50163e-06
 Reference value :  7.50307e-06
 Reference value :  7.50418e-06
 Reference value :  7.50568e-06
 Reference value :  7.50630e-06
 Reference value :  7.50794e-06
 Reference value :  7.51094e-06
 Reference value :  7.54156e-06
 Reference value :  7.75011e-06
 Reference value :  7.75020e-06
 Reference value :  7.75026e-06
 Reference value :  7.75045e-06
 Reference value :  7.75109e-06
 Reference value :  7.75202e-06
 Reference value :  7.75323e-06
 Reference value :  7.75376e-06
 Reference value :  7.75490e-06
 Reference value :  7.75633e-06
 Reference value :  7.76123e-06
 Reference value :  7.80269e-06
 Reference value :  8.00001e-06
 Reference value :  8.00010e-06
 Reference value :  8.00016e-06
 Reference value :  8.00054e-06
 Reference value :  8.00086e-06
 Reference value :  8.00163e-06
 Reference value :  8.00307e-06
 Reference value :  8.00420e-06
 Reference value :  8.00526e-06
 Reference value :  8.00653e-06
 Reference value :  8.00818e-06
 Reference value :  8.01006e-06
 Reference value :  8.01782e-06
 Reference value :  8.13382e-06
 Reference value :  8.25017e-06
 Reference value :  8.25022e-06
 Reference value :  8.25045e-06
 Reference value :  8.25109e-06
 Reference value :  8.25202e-06
 Reference value :  8.25323e-06
 Reference value :  8.25483e-06
 Reference value :  8.25837e-06
 Reference value :  8.26681e-06
 Reference value :  8.31910e-06
 Reference value :  8.50000e-06
 Reference value :  8.50003e-06
 Reference value :  8.50011e-06
 Reference value :  8.50022e-06
 Reference value :  8.50096e-06
 Reference value :  8.50197e-06
 Reference value :  8.50368e-06
 Reference value :  8.50475e-06
 Reference value :  8.50596e-06
 Reference value :  8.50983e-06
 Reference value :  8.52406e-06
 Reference value :  8.52970e-06
 Reference value :  8.53358e-06
 Reference value :  8.53658e-06
 Reference value :  8.53916e-06
 Reference value :  8.54267e-06
 Reference value :  8.54696e-06
 Reference value :  8.55470e-06
 Reference value :  8.56550e-06
 Reference value :  8.58934e-06
 Reference value :  8.63537e-06
 Reference value :  8.69942e-06
 Reference value :  8.75011e-06
 Reference value :  8.75017e-06
 Reference value :  8.75022e-06
 Reference value :  8.75032e-06
 Reference value :  8.75070e-06
 Reference value :  8.75109e-06
 Reference value :  8.75202e-06
 Reference value :  8.75322e-06
 Reference value :  8.75375e-06
 Reference value :  8.75435e-06
 Reference value :  8.75499e-06
 Reference value :  8.75798e-06
 Reference value :  8.77209e-06
 Reference value :  8.84732e-06
 Reference value :  8.88184e-06
 Reference value :  8.90865e-06
 Reference value :  8.92559e-06
 Reference value :  8.94199e-06
 Reference value :  8.97114e-06
No. of Data Rows : 1347
ngspice-44 done
