
Note: Compatibility modes selected: hs a


Circuit: ** sch_path: /home/audrey/cace/sar-adc-using-sky130-pdk/runs/run_2025-09-09_12-02-09/parameters/power/run_4/power_consumption.sch

option SCALE: Scale is set to 1e-06 for instance and model parameters
option SCALE: Scale is set to 1e-06 for instance and model parameters
option SCALE: Scale is set to 1e-06 for instance and model parameters
option SCALE: Scale is set to 1e-06 for instance and model parameters
Doing analysis at TEMP = 27.000000 and TNOM = 27.000000

Using KLU as Direct Linear Solver
 Reference value :  0.00000e+00
 Reference value :  1.00000e-12
 Reference value :  4.00000e-12
 Reference value :  1.60000e-11
 Reference value :  6.40000e-11
 Reference value :  1.00000e-10
 Reference value :  1.06400e-10
 Reference value :  1.44800e-10
 Reference value :  2.98400e-10
 Reference value :  4.69054e-10
 Reference value :  9.85386e-10
 Reference value :  1.39979e-09
 Reference value :  1.83837e-09
 Reference value :  2.29408e-09
 Reference value :  2.70330e-09
 Reference value :  3.14648e-09
 Reference value :  3.63907e-09
 Reference value :  4.16424e-09
 Reference value :  4.71153e-09
 Reference value :  5.38711e-09
 Reference value :  6.97397e-09
 Reference value :  7.79014e-09
 Reference value :  8.63809e-09
 Reference value :  9.57281e-09
 Reference value :  1.05998e-08
 Reference value :  1.14906e-08
 Reference value :  1.21238e-08
 Reference value :  1.28184e-08
 Reference value :  1.45477e-08
 Reference value :  1.59272e-08
 Reference value :  1.94519e-08
 Reference value :  2.14309e-08
 Reference value :  2.27751e-08
 Reference value :  2.40442e-08
 Reference value :  2.49427e-08
 Reference value :  2.82520e-08
 Reference value :  3.48037e-08
 Reference value :  3.85068e-08
 Reference value :  4.70400e-08
 Reference value :  5.97328e-08
 Reference value :  7.03111e-08
 Reference value :  8.62352e-08
 Reference value :  1.13550e-07
 Reference value :  2.45252e-07
 Reference value :  2.50110e-07
 Reference value :  2.50170e-07
 Reference value :  2.50207e-07
 Reference value :  2.50247e-07
 Reference value :  2.50300e-07
 Reference value :  2.50406e-07
 Reference value :  2.50518e-07
 Reference value :  2.50740e-07
 Reference value :  2.51400e-07
 Reference value :  2.51805e-07
 Reference value :  2.52233e-07
 Reference value :  2.52877e-07
 Reference value :  2.53554e-07
 Reference value :  2.54088e-07
 Reference value :  2.54681e-07
 Reference value :  2.55258e-07
 Reference value :  2.55970e-07
 Reference value :  2.56723e-07
 Reference value :  2.57860e-07
 Reference value :  2.59393e-07
 Reference value :  2.64721e-07
 Reference value :  2.80512e-07
 Reference value :  2.97093e-07
 Reference value :  3.28155e-07
 Reference value :  3.80292e-07
 Reference value :  4.74551e-07
 Reference value :  5.00000e-07
 Reference value :  5.00010e-07
 Reference value :  5.00030e-07
 Reference value :  5.00070e-07
 Reference value :  5.00100e-07
 Reference value :  5.00108e-07
 Reference value :  5.00124e-07
 Reference value :  5.00156e-07
 Reference value :  5.00348e-07
 Reference value :  5.00537e-07
 Reference value :  5.00857e-07
 Reference value :  5.01627e-07
 Reference value :  5.02570e-07
 Reference value :  5.03086e-07
 Reference value :  5.03660e-07
 Reference value :  5.04229e-07
 Reference value :  5.04991e-07
 Reference value :  5.05807e-07
 Reference value :  5.07186e-07
 Reference value :  5.08676e-07
 Reference value :  5.09874e-07
 Reference value :  5.11201e-07
 Reference value :  5.12534e-07
 Reference value :  5.14214e-07
 Reference value :  5.16035e-07
 Reference value :  5.17960e-07
 Reference value :  5.25679e-07
 Reference value :  5.33464e-07
 Reference value :  5.46789e-07
 Reference value :  5.67373e-07
 Reference value :  6.08026e-07
 Reference value :  6.88862e-07
 Reference value :  7.50100e-07
 Reference value :  7.50110e-07
 Reference value :  7.50170e-07
 Reference value :  7.50208e-07
 Reference value :  7.50224e-07
 Reference value :  7.50320e-07
 Reference value :  7.50448e-07
 Reference value :  7.51109e-07
 Reference value :  7.51576e-07
 Reference value :  7.52040e-07
 Reference value :  7.52526e-07
 Reference value :  7.53260e-07
 Reference value :  7.53780e-07
 Reference value :  7.54364e-07
 Reference value :  7.54923e-07
 Reference value :  7.55513e-07
 Reference value :  7.56349e-07
 Reference value :  7.57213e-07
 Reference value :  7.58940e-07
 Reference value :  7.61200e-07
 Reference value :  7.69822e-07
 Reference value :  7.80666e-07
 Reference value :  8.45727e-07
 Reference value :  9.32476e-07
 Reference value :  1.00000e-06
 Reference value :  1.00001e-06
 Reference value :  1.00003e-06
 Reference value :  1.00007e-06
 Reference value :  1.00010e-06
 Reference value :  1.00012e-06
 Reference value :  1.00016e-06
 Reference value :  1.00022e-06
 Reference value :  1.00035e-06
 Reference value :  1.00054e-06
 Reference value :  1.00086e-06
 Reference value :  1.00119e-06
 Reference value :  1.00162e-06
 Reference value :  1.00208e-06
 Reference value :  1.00257e-06
 Reference value :  1.00305e-06
 Reference value :  1.00362e-06
 Reference value :  1.00416e-06
 Reference value :  1.00471e-06
 Reference value :  1.00521e-06
 Reference value :  1.00576e-06
 Reference value :  1.00642e-06
 Reference value :  1.00724e-06
 Reference value :  1.00857e-06
 Reference value :  1.01013e-06
 Reference value :  1.01177e-06
 Reference value :  1.01340e-06
 Reference value :  1.01459e-06
 Reference value :  1.01569e-06
 Reference value :  1.01665e-06
 Reference value :  1.01776e-06
 Reference value :  1.01911e-06
 Reference value :  1.02034e-06
 Reference value :  1.02255e-06
 Reference value :  1.02444e-06
 Reference value :  1.02648e-06
 Reference value :  1.02903e-06
 Reference value :  1.03145e-06
 Reference value :  1.03630e-06
 Reference value :  1.04302e-06
 Reference value :  1.05049e-06
 Reference value :  1.06510e-06
 Reference value :  1.08821e-06
 Reference value :  1.15275e-06
 Reference value :  1.23674e-06
 Reference value :  1.25010e-06
 Reference value :  1.25011e-06
 Reference value :  1.25013e-06
 Reference value :  1.25017e-06
 Reference value :  1.25020e-06
 Reference value :  1.25021e-06
 Reference value :  1.25022e-06
 Reference value :  1.25026e-06
 Reference value :  1.25032e-06
 Reference value :  1.25045e-06
 Reference value :  1.25070e-06
 Reference value :  1.25110e-06
 Reference value :  1.25157e-06
 Reference value :  1.25203e-06
 Reference value :  1.25252e-06
 Reference value :  1.25325e-06
 Reference value :  1.25376e-06
 Reference value :  1.25433e-06
 Reference value :  1.25501e-06
 Reference value :  1.25572e-06
 Reference value :  1.25646e-06
 Reference value :  1.25796e-06
 Reference value :  1.26244e-06
 Reference value :  1.27249e-06
 Reference value :  1.28588e-06
 Reference value :  1.36623e-06
 Reference value :  1.47336e-06
 Reference value :  1.50001e-06
 Reference value :  1.50003e-06
 Reference value :  1.50007e-06
 Reference value :  1.50011e-06
 Reference value :  1.50012e-06
 Reference value :  1.50022e-06
 Reference value :  1.50035e-06
 Reference value :  1.50054e-06
 Reference value :  1.50086e-06
 Reference value :  1.50119e-06
 Reference value :  1.50159e-06
 Reference value :  1.50203e-06
 Reference value :  1.50251e-06
 Reference value :  1.50300e-06
 Reference value :  1.50356e-06
 Reference value :  1.50411e-06
 Reference value :  1.50561e-06
 Reference value :  1.50624e-06
 Reference value :  1.50695e-06
 Reference value :  1.50794e-06
 Reference value :  1.50886e-06
 Reference value :  1.50985e-06
 Reference value :  1.51111e-06
 Reference value :  1.51451e-06
 Reference value :  1.51905e-06
 Reference value :  1.52623e-06
 Reference value :  1.54059e-06
 Reference value :  1.56932e-06
 Reference value :  1.62676e-06
 Reference value :  1.74166e-06
 Reference value :  1.75010e-06
 Reference value :  1.75011e-06
 Reference value :  1.75013e-06
 Reference value :  1.75017e-06
 Reference value :  1.75020e-06
 Reference value :  1.75021e-06
 Reference value :  1.75022e-06
 Reference value :  1.75026e-06
 Reference value :  1.75032e-06
 Reference value :  1.75045e-06
 Reference value :  1.75070e-06
 Reference value :  1.75110e-06
 Reference value :  1.75157e-06
 Reference value :  1.75203e-06
 Reference value :  1.75252e-06
 Reference value :  1.75325e-06
 Reference value :  1.75378e-06
 Reference value :  1.75436e-06
 Reference value :  1.75491e-06
 Reference value :  1.75550e-06
 Reference value :  1.75624e-06
 Reference value :  1.75705e-06
 Reference value :  1.75788e-06
 Reference value :  1.75891e-06
 Reference value :  1.76052e-06
 Reference value :  1.76213e-06
 Reference value :  1.76495e-06
 Reference value :  1.76813e-06
 Reference value :  1.77448e-06
 Reference value :  1.78574e-06
 Reference value :  1.84494e-06
 Reference value :  2.00000e-06
 Reference value :  2.00001e-06
 Reference value :  2.00003e-06
 Reference value :  2.00007e-06
 Reference value :  2.00010e-06
 Reference value :  2.00011e-06
 Reference value :  2.00012e-06
 Reference value :  2.00016e-06
 Reference value :  2.00022e-06
 Reference value :  2.00035e-06
 Reference value :  2.00054e-06
 Reference value :  2.00086e-06
 Reference value :  2.00119e-06
 Reference value :  2.00163e-06
 Reference value :  2.00209e-06
 Reference value :  2.00258e-06
 Reference value :  2.00308e-06
 Reference value :  2.00364e-06
 Reference value :  2.00419e-06
 Reference value :  2.00470e-06
 Reference value :  2.00519e-06
 Reference value :  2.00574e-06
 Reference value :  2.00639e-06
 Reference value :  2.00710e-06
 Reference value :  2.00807e-06
 Reference value :  2.00921e-06
 Reference value :  2.01010e-06
 Reference value :  2.01104e-06
 Reference value :  2.01197e-06
 Reference value :  2.01299e-06
 Reference value :  2.01371e-06
 Reference value :  2.01441e-06
 Reference value :  2.01527e-06
 Reference value :  2.01619e-06
 Reference value :  2.01710e-06
 Reference value :  2.01806e-06
 Reference value :  2.01908e-06
 Reference value :  2.02091e-06
 Reference value :  2.02266e-06
 Reference value :  2.03215e-06
 Reference value :  2.05687e-06
 Reference value :  2.08969e-06
 Reference value :  2.20408e-06
 Reference value :  2.25010e-06
 Reference value :  2.25013e-06
 Reference value :  2.25020e-06
 Reference value :  2.25021e-06
 Reference value :  2.25022e-06
 Reference value :  2.25032e-06
 Reference value :  2.25070e-06
 Reference value :  2.25110e-06
 Reference value :  2.25157e-06
 Reference value :  2.25203e-06
 Reference value :  2.25324e-06
 Reference value :  2.25376e-06
 Reference value :  2.25435e-06
 Reference value :  2.25500e-06
 Reference value :  2.25566e-06
 Reference value :  2.25643e-06
 Reference value :  2.25797e-06
 Reference value :  2.25959e-06
 Reference value :  2.26243e-06
 Reference value :  2.26570e-06
 Reference value :  2.28530e-06
 Reference value :  2.36372e-06
 Reference value :  2.50000e-06
 Reference value :  2.50003e-06
 Reference value :  2.50007e-06
 Reference value :  2.50010e-06
 Reference value :  2.50012e-06
 Reference value :  2.50016e-06
 Reference value :  2.50022e-06
 Reference value :  2.50035e-06
 Reference value :  2.50086e-06
 Reference value :  2.50119e-06
 Reference value :  2.50159e-06
 Reference value :  2.50204e-06
 Reference value :  2.50251e-06
 Reference value :  2.50300e-06
 Reference value :  2.50356e-06
 Reference value :  2.50411e-06
 Reference value :  2.50488e-06
 Reference value :  2.50561e-06
 Reference value :  2.50625e-06
 Reference value :  2.50694e-06
 Reference value :  2.50794e-06
 Reference value :  2.50886e-06
 Reference value :  2.50985e-06
 Reference value :  2.51110e-06
 Reference value :  2.51224e-06
 Reference value :  2.51906e-06
 Reference value :  2.52623e-06
 Reference value :  2.54056e-06
 Reference value :  2.56923e-06
 Reference value :  2.62657e-06
 Reference value :  2.74124e-06
 Reference value :  2.75011e-06
 Reference value :  2.75013e-06
 Reference value :  2.75017e-06
 Reference value :  2.75020e-06
 Reference value :  2.75021e-06
 Reference value :  2.75022e-06
 Reference value :  2.75032e-06
 Reference value :  2.75070e-06
 Reference value :  2.75110e-06
 Reference value :  2.75157e-06
 Reference value :  2.75203e-06
 Reference value :  2.75252e-06
 Reference value :  2.75325e-06
 Reference value :  2.75377e-06
 Reference value :  2.75436e-06
 Reference value :  2.75491e-06
 Reference value :  2.75549e-06
 Reference value :  2.75623e-06
 Reference value :  2.75705e-06
 Reference value :  2.75787e-06
 Reference value :  2.75890e-06
 Reference value :  2.76047e-06
 Reference value :  2.76210e-06
 Reference value :  2.76803e-06
 Reference value :  2.77438e-06
 Reference value :  2.80379e-06
 Reference value :  2.91556e-06
 Reference value :  3.00000e-06
 Reference value :  3.00001e-06
 Reference value :  3.00003e-06
 Reference value :  3.00007e-06
 Reference value :  3.00010e-06
 Reference value :  3.00011e-06
 Reference value :  3.00012e-06
 Reference value :  3.00016e-06
 Reference value :  3.00022e-06
 Reference value :  3.00035e-06
 Reference value :  3.00054e-06
 Reference value :  3.00086e-06
 Reference value :  3.00119e-06
 Reference value :  3.00163e-06
 Reference value :  3.00258e-06
 Reference value :  3.00308e-06
 Reference value :  3.00364e-06
 Reference value :  3.00419e-06
 Reference value :  3.00471e-06
 Reference value :  3.00519e-06
 Reference value :  3.00574e-06
 Reference value :  3.00639e-06
 Reference value :  3.00710e-06
 Reference value :  3.00807e-06
 Reference value :  3.00921e-06
 Reference value :  3.01010e-06
 Reference value :  3.01105e-06
 Reference value :  3.01197e-06
 Reference value :  3.01299e-06
 Reference value :  3.01371e-06
 Reference value :  3.01440e-06
 Reference value :  3.01526e-06
 Reference value :  3.01618e-06
 Reference value :  3.01708e-06
 Reference value :  3.01803e-06
 Reference value :  3.01905e-06
 Reference value :  3.02083e-06
 Reference value :  3.02259e-06
 Reference value :  3.02565e-06
 Reference value :  3.03176e-06
 Reference value :  3.03983e-06
 Reference value :  3.05554e-06
 Reference value :  3.07703e-06
 Reference value :  3.11775e-06
 Reference value :  3.16099e-06
 Reference value :  3.20672e-06
 Reference value :  3.25010e-06
 Reference value :  3.25011e-06
 Reference value :  3.25013e-06
 Reference value :  3.25017e-06
 Reference value :  3.25020e-06
 Reference value :  3.25022e-06
 Reference value :  3.25026e-06
 Reference value :  3.25032e-06
 Reference value :  3.25045e-06
 Reference value :  3.25070e-06
 Reference value :  3.25109e-06
 Reference value :  3.25157e-06
 Reference value :  3.25203e-06
 Reference value :  3.25251e-06
 Reference value :  3.25324e-06
 Reference value :  3.25376e-06
 Reference value :  3.25435e-06
 Reference value :  3.25500e-06
 Reference value :  3.25642e-06
 Reference value :  3.25958e-06
 Reference value :  3.26242e-06
 Reference value :  3.27217e-06
 Reference value :  3.28518e-06
 Reference value :  3.36322e-06
 Reference value :  3.46728e-06
 Reference value :  3.50000e-06
 Reference value :  3.50001e-06
 Reference value :  3.50003e-06
 Reference value :  3.50010e-06
 Reference value :  3.50012e-06
 Reference value :  3.50016e-06
 Reference value :  3.50035e-06
 Reference value :  3.50086e-06
 Reference value :  3.50119e-06
 Reference value :  3.50159e-06
 Reference value :  3.50204e-06
 Reference value :  3.50251e-06
 Reference value :  3.50300e-06
 Reference value :  3.50356e-06
 Reference value :  3.50488e-06
 Reference value :  3.50561e-06
 Reference value :  3.50625e-06
 Reference value :  3.50694e-06
 Reference value :  3.50794e-06
 Reference value :  3.50886e-06
 Reference value :  3.50985e-06
 Reference value :  3.51110e-06
 Reference value :  3.51451e-06
 Reference value :  3.52622e-06
 Reference value :  3.56916e-06
 Reference value :  3.74093e-06
 Reference value :  3.75011e-06
 Reference value :  3.75013e-06
 Reference value :  3.75017e-06
 Reference value :  3.75021e-06
 Reference value :  3.75026e-06
 Reference value :  3.75032e-06
 Reference value :  3.75070e-06
 Reference value :  3.75157e-06
 Reference value :  3.75203e-06
 Reference value :  3.75324e-06
 Reference value :  3.75377e-06
 Reference value :  3.75490e-06
 Reference value :  3.75623e-06
 Reference value :  3.75786e-06
 Reference value :  3.75889e-06
 Reference value :  3.76208e-06
 Reference value :  3.76798e-06
 Reference value :  3.78488e-06
 Reference value :  3.80293e-06
 Reference value :  3.83903e-06
 Reference value :  4.00000e-06
 Reference value :  4.00001e-06
 Reference value :  4.00003e-06
 Reference value :  4.00007e-06
 Reference value :  4.00010e-06
 Reference value :  4.00012e-06
 Reference value :  4.00016e-06
 Reference value :  4.00035e-06
 Reference value :  4.00086e-06
 Reference value :  4.00163e-06
 Reference value :  4.00258e-06
 Reference value :  4.00308e-06
 Reference value :  4.00419e-06
 Reference value :  4.00471e-06
 Reference value :  4.00519e-06
 Reference value :  4.00574e-06
 Reference value :  4.00710e-06
 Reference value :  4.00807e-06
 Reference value :  4.00921e-06
 Reference value :  4.01010e-06
 Reference value :  4.01197e-06
 Reference value :  4.01298e-06
 Reference value :  4.01370e-06
 Reference value :  4.01440e-06
 Reference value :  4.01525e-06
 Reference value :  4.01617e-06
 Reference value :  4.01802e-06
 Reference value :  4.02080e-06
 Reference value :  4.02557e-06
 Reference value :  4.03955e-06
 Reference value :  4.07451e-06
 Reference value :  4.08910e-06
 Reference value :  4.10450e-06
 Reference value :  4.12805e-06
 Reference value :  4.17465e-06
 Reference value :  4.25010e-06
 Reference value :  4.25013e-06
 Reference value :  4.25020e-06
 Reference value :  4.25022e-06
 Reference value :  4.25032e-06
 Reference value :  4.25070e-06
 Reference value :  4.25156e-06
 Reference value :  4.25203e-06
 Reference value :  4.25324e-06
 Reference value :  4.25376e-06
 Reference value :  4.25435e-06
 Reference value :  4.25499e-06
 Reference value :  4.25642e-06
 Reference value :  4.25957e-06
 Reference value :  4.26565e-06
 Reference value :  4.28507e-06
 Reference value :  4.36276e-06
 Reference value :  4.50000e-06
 Reference value :  4.50003e-06
 Reference value :  4.50010e-06
 Reference value :  4.50012e-06
 Reference value :  4.50022e-06
 Reference value :  4.50054e-06
 Reference value :  4.50086e-06
 Reference value :  4.50119e-06
 Reference value :  4.50159e-06
 Reference value :  4.50204e-06
 Reference value :  4.50251e-06
 Reference value :  4.50300e-06
 Reference value :  4.50356e-06
 Reference value :  4.50411e-06
 Reference value :  4.50488e-06
 Reference value :  4.50561e-06
 Reference value :  4.50625e-06
 Reference value :  4.50694e-06
 Reference value :  4.50795e-06
 Reference value :  4.50886e-06
 Reference value :  4.50986e-06
 Reference value :  4.51224e-06
 Reference value :  4.51907e-06
 Reference value :  4.54052e-06
 Reference value :  4.62633e-06
 Reference value :  4.75010e-06
 Reference value :  4.75013e-06
 Reference value :  4.75020e-06
 Reference value :  4.75022e-06
 Reference value :  4.75032e-06
 Reference value :  4.75070e-06
 Reference value :  4.75156e-06
 Reference value :  4.75203e-06
 Reference value :  4.75251e-06
 Reference value :  4.75324e-06
 Reference value :  4.75377e-06
 Reference value :  4.75490e-06
 Reference value :  4.75623e-06
 Reference value :  4.75786e-06
 Reference value :  4.75889e-06
 Reference value :  4.76042e-06
 Reference value :  4.76478e-06
 Reference value :  4.77429e-06
 Reference value :  4.80240e-06
 Reference value :  4.90856e-06
 Reference value :  5.00001e-06
 Reference value :  5.00007e-06
 Reference value :  5.00011e-06
 Reference value :  5.00012e-06
 Reference value :  5.00022e-06
 Reference value :  5.00035e-06
 Reference value :  5.00086e-06
 Reference value :  5.00119e-06
 Reference value :  5.00163e-06
 Reference value :  5.00209e-06
 Reference value :  5.00258e-06
 Reference value :  5.00308e-06
 Reference value :  5.00364e-06
 Reference value :  5.00419e-06
 Reference value :  5.00471e-06
 Reference value :  5.00519e-06
 Reference value :  5.00640e-06
 Reference value :  5.00711e-06
 Reference value :  5.00807e-06
 Reference value :  5.00921e-06
 Reference value :  5.01010e-06
 Reference value :  5.01105e-06
 Reference value :  5.01197e-06
 Reference value :  5.01298e-06
 Reference value :  5.01370e-06
 Reference value :  5.01525e-06
 Reference value :  5.01707e-06
 Reference value :  5.01802e-06
 Reference value :  5.02079e-06
 Reference value :  5.02554e-06
 Reference value :  5.03945e-06
 Reference value :  5.04660e-06
 Reference value :  5.06488e-06
 Reference value :  5.07751e-06
 Reference value :  5.10556e-06
 Reference value :  5.13220e-06
 Reference value :  5.17135e-06
 Reference value :  5.25011e-06
 Reference value :  5.25013e-06
 Reference value :  5.25017e-06
 Reference value :  5.25020e-06
 Reference value :  5.25021e-06
 Reference value :  5.25026e-06
 Reference value :  5.25045e-06
 Reference value :  5.25109e-06
 Reference value :  5.25202e-06
 Reference value :  5.25251e-06
 Reference value :  5.25324e-06
 Reference value :  5.25376e-06
 Reference value :  5.25435e-06
 Reference value :  5.25499e-06
 Reference value :  5.25564e-06
 Reference value :  5.25642e-06
 Reference value :  5.25796e-06
 Reference value :  5.26240e-06
 Reference value :  5.26563e-06
 Reference value :  5.27209e-06
 Reference value :  5.31082e-06
 Reference value :  5.36246e-06
 Reference value :  5.46575e-06
 Reference value :  5.50001e-06
 Reference value :  5.50003e-06
 Reference value :  5.50010e-06
 Reference value :  5.50012e-06
 Reference value :  5.50022e-06
 Reference value :  5.50054e-06
 Reference value :  5.50086e-06
 Reference value :  5.50119e-06
 Reference value :  5.50159e-06
 Reference value :  5.50251e-06
 Reference value :  5.50300e-06
 Reference value :  5.50356e-06
 Reference value :  5.50411e-06
 Reference value :  5.50488e-06
 Reference value :  5.50561e-06
 Reference value :  5.50625e-06
 Reference value :  5.50694e-06
 Reference value :  5.50795e-06
 Reference value :  5.50886e-06
 Reference value :  5.50986e-06
 Reference value :  5.51110e-06
 Reference value :  5.51452e-06
 Reference value :  5.52622e-06
 Reference value :  5.56910e-06
 Reference value :  5.74061e-06
 Reference value :  5.75011e-06
 Reference value :  5.75013e-06
 Reference value :  5.75017e-06
 Reference value :  5.75020e-06
 Reference value :  5.75022e-06
 Reference value :  5.75032e-06
 Reference value :  5.75070e-06
 Reference value :  5.75109e-06
 Reference value :  5.75203e-06
 Reference value :  5.75324e-06
 Reference value :  5.75377e-06
 Reference value :  5.75436e-06
 Reference value :  5.75490e-06
 Reference value :  5.75623e-06
 Reference value :  5.75704e-06
 Reference value :  5.75889e-06
 Reference value :  5.76041e-06
 Reference value :  5.76476e-06
 Reference value :  5.77427e-06
 Reference value :  5.80204e-06
 Reference value :  5.90677e-06
 Reference value :  6.00001e-06
 Reference value :  6.00003e-06
 Reference value :  6.00010e-06
 Reference value :  6.00012e-06
 Reference value :  6.00016e-06
 Reference value :  6.00035e-06
 Reference value :  6.00086e-06
 Reference value :  6.00163e-06
 Reference value :  6.00258e-06
 Reference value :  6.00308e-06
 Reference value :  6.00364e-06
 Reference value :  6.00419e-06
 Reference value :  6.00519e-06
 Reference value :  6.00574e-06
 Reference value :  6.00640e-06
 Reference value :  6.00711e-06
 Reference value :  6.00807e-06
 Reference value :  6.01010e-06
 Reference value :  6.01105e-06
 Reference value :  6.01197e-06
 Reference value :  6.01298e-06
 Reference value :  6.01369e-06
 Reference value :  6.01439e-06
 Reference value :  6.01526e-06
 Reference value :  6.01618e-06
 Reference value :  6.01708e-06
 Reference value :  6.01803e-06
 Reference value :  6.02082e-06
 Reference value :  6.02561e-06
 Reference value :  6.03167e-06
 Reference value :  6.03731e-06
 Reference value :  6.05650e-06
 Reference value :  6.09146e-06
 Reference value :  6.16885e-06
 Reference value :  6.20320e-06
 Reference value :  6.25011e-06
 Reference value :  6.25013e-06
 Reference value :  6.25020e-06
 Reference value :  6.25022e-06
 Reference value :  6.25032e-06
 Reference value :  6.25070e-06
 Reference value :  6.25109e-06
 Reference value :  6.25156e-06
 Reference value :  6.25202e-06
 Reference value :  6.25251e-06
 Reference value :  6.25323e-06
 Reference value :  6.25376e-06
 Reference value :  6.25499e-06
 Reference value :  6.25564e-06
 Reference value :  6.25641e-06
 Reference value :  6.25796e-06
 Reference value :  6.25956e-06
 Reference value :  6.26240e-06
 Reference value :  6.26562e-06
 Reference value :  6.28495e-06
 Reference value :  6.31072e-06
 Reference value :  6.46535e-06
 Reference value :  6.50001e-06
 Reference value :  6.50007e-06
 Reference value :  6.50011e-06
 Reference value :  6.50016e-06
 Reference value :  6.50022e-06
 Reference value :  6.50035e-06
 Reference value :  6.50054e-06
 Reference value :  6.50086e-06
 Reference value :  6.50119e-06
 Reference value :  6.50159e-06
 Reference value :  6.50204e-06
 Reference value :  6.50251e-06
 Reference value :  6.50300e-06
 Reference value :  6.50356e-06
 Reference value :  6.50411e-06
 Reference value :  6.50488e-06
 Reference value :  6.50561e-06
 Reference value :  6.50625e-06
 Reference value :  6.50694e-06
 Reference value :  6.50795e-06
 Reference value :  6.50886e-06
 Reference value :  6.50986e-06
 Reference value :  6.51110e-06
 Reference value :  6.51224e-06
 Reference value :  6.51908e-06
 Reference value :  6.52622e-06
 Reference value :  6.54051e-06
 Reference value :  6.62623e-06
 Reference value :  6.74053e-06
 Reference value :  6.75011e-06
 Reference value :  6.75013e-06
 Reference value :  6.75017e-06
 Reference value :  6.75020e-06
 Reference value :  6.75021e-06
 Reference value :  6.75022e-06
 Reference value :  6.75032e-06
 Reference value :  6.75045e-06
 Reference value :  6.75070e-06
 Reference value :  6.75109e-06
 Reference value :  6.75156e-06
 Reference value :  6.75203e-06
 Reference value :  6.75251e-06
 Reference value :  6.75324e-06
 Reference value :  6.75376e-06
 Reference value :  6.75436e-06
 Reference value :  6.75490e-06
 Reference value :  6.75548e-06
 Reference value :  6.75623e-06
 Reference value :  6.75704e-06
 Reference value :  6.75785e-06
 Reference value :  6.75889e-06
 Reference value :  6.76040e-06
 Reference value :  6.76206e-06
 Reference value :  6.76475e-06
 Reference value :  6.76792e-06
 Reference value :  6.77425e-06
 Reference value :  6.80179e-06
 Reference value :  6.90550e-06
 Reference value :  7.00000e-06
 Reference value :  7.00001e-06
 Reference value :  7.00003e-06
 Reference value :  7.00007e-06
 Reference value :  7.00010e-06
 Reference value :  7.00011e-06
 Reference value :  7.00012e-06
 Reference value :  7.00022e-06
 Reference value :  7.00035e-06
 Reference value :  7.00054e-06
 Reference value :  7.00086e-06
 Reference value :  7.00119e-06
 Reference value :  7.00163e-06
 Reference value :  7.00209e-06
 Reference value :  7.00258e-06
 Reference value :  7.00308e-06
 Reference value :  7.00364e-06
 Reference value :  7.00419e-06
 Reference value :  7.00471e-06
 Reference value :  7.00519e-06
 Reference value :  7.00574e-06
 Reference value :  7.00640e-06
 Reference value :  7.00711e-06
 Reference value :  7.00807e-06
 Reference value :  7.00921e-06
 Reference value :  7.01010e-06
 Reference value :  7.01105e-06
 Reference value :  7.01197e-06
 Reference value :  7.01298e-06
 Reference value :  7.01369e-06
 Reference value :  7.01440e-06
 Reference value :  7.01529e-06
 Reference value :  7.01621e-06
 Reference value :  7.01714e-06
 Reference value :  7.01812e-06
 Reference value :  7.01915e-06
 Reference value :  7.02089e-06
 Reference value :  7.02269e-06
 Reference value :  7.03045e-06
 Reference value :  7.03913e-06
 Reference value :  7.05347e-06
 Reference value :  7.11054e-06
 Reference value :  7.16393e-06
 Reference value :  7.25010e-06
 Reference value :  7.25011e-06
 Reference value :  7.25013e-06
 Reference value :  7.25017e-06
 Reference value :  7.25020e-06
 Reference value :  7.25021e-06
 Reference value :  7.25026e-06
 Reference value :  7.25032e-06
 Reference value :  7.25045e-06
 Reference value :  7.25070e-06
 Reference value :  7.25109e-06
 Reference value :  7.25156e-06
 Reference value :  7.25202e-06
 Reference value :  7.25251e-06
 Reference value :  7.25323e-06
 Reference value :  7.25376e-06
 Reference value :  7.25435e-06
 Reference value :  7.25499e-06
 Reference value :  7.25564e-06
 Reference value :  7.25641e-06
 Reference value :  7.25796e-06
 Reference value :  7.25955e-06
 Reference value :  7.26239e-06
 Reference value :  7.26560e-06
 Reference value :  7.27203e-06
 Reference value :  7.28488e-06
 Reference value :  7.31057e-06
 Reference value :  7.36196e-06
 Reference value :  7.50000e-06
 Reference value :  7.50001e-06
 Reference value :  7.50003e-06
 Reference value :  7.50007e-06
 Reference value :  7.50010e-06
 Reference value :  7.50011e-06
 Reference value :  7.50012e-06
 Reference value :  7.50016e-06
 Reference value :  7.50022e-06
 Reference value :  7.50035e-06
 Reference value :  7.50054e-06
 Reference value :  7.50086e-06
 Reference value :  7.50119e-06
 Reference value :  7.50159e-06
 Reference value :  7.50251e-06
 Reference value :  7.50300e-06
 Reference value :  7.50356e-06
 Reference value :  7.50411e-06
 Reference value :  7.50488e-06
 Reference value :  7.50561e-06
 Reference value :  7.50625e-06
 Reference value :  7.50694e-06
 Reference value :  7.50795e-06
 Reference value :  7.50886e-06
 Reference value :  7.50986e-06
 Reference value :  7.51109e-06
 Reference value :  7.51224e-06
 Reference value :  7.51452e-06
 Reference value :  7.52622e-06
 Reference value :  7.54051e-06
 Reference value :  7.56907e-06
 Reference value :  7.74048e-06
 Reference value :  7.75010e-06
 Reference value :  7.75011e-06
 Reference value :  7.75013e-06
 Reference value :  7.75017e-06
 Reference value :  7.75020e-06
 Reference value :  7.75021e-06
 Reference value :  7.75022e-06
 Reference value :  7.75026e-06
 Reference value :  7.75032e-06
 Reference value :  7.75045e-06
 Reference value :  7.75070e-06
 Reference value :  7.75109e-06
 Reference value :  7.75156e-06
 Reference value :  7.75202e-06
 Reference value :  7.75251e-06
 Reference value :  7.75324e-06
 Reference value :  7.75376e-06
 Reference value :  7.75435e-06
 Reference value :  7.75490e-06
 Reference value :  7.75548e-06
 Reference value :  7.75622e-06
 Reference value :  7.75704e-06
 Reference value :  7.75785e-06
 Reference value :  7.75889e-06
 Reference value :  7.76038e-06
 Reference value :  7.76204e-06
 Reference value :  7.76472e-06
 Reference value :  7.76788e-06
 Reference value :  7.77422e-06
 Reference value :  7.80116e-06
 Reference value :  7.83489e-06
 Reference value :  8.00000e-06
 Reference value :  8.00001e-06
 Reference value :  8.00003e-06
 Reference value :  8.00007e-06
 Reference value :  8.00010e-06
 Reference value :  8.00011e-06
 Reference value :  8.00012e-06
 Reference value :  8.00016e-06
 Reference value :  8.00022e-06
 Reference value :  8.00035e-06
 Reference value :  8.00054e-06
 Reference value :  8.00086e-06
 Reference value :  8.00119e-06
 Reference value :  8.00163e-06
 Reference value :  8.00209e-06
 Reference value :  8.00258e-06
 Reference value :  8.00308e-06
 Reference value :  8.00364e-06
 Reference value :  8.00415e-06
 Reference value :  8.00467e-06
 Reference value :  8.00515e-06
 Reference value :  8.00569e-06
 Reference value :  8.00631e-06
 Reference value :  8.00703e-06
 Reference value :  8.00773e-06
 Reference value :  8.00859e-06
 Reference value :  8.00930e-06
 Reference value :  8.01008e-06
 Reference value :  8.01089e-06
 Reference value :  8.01182e-06
 Reference value :  8.01368e-06
 Reference value :  8.01576e-06
 Reference value :  8.01820e-06
 Reference value :  8.02112e-06
 Reference value :  8.02516e-06
 Reference value :  8.03324e-06
 Reference value :  8.04940e-06
 Reference value :  8.06897e-06
 Reference value :  8.10213e-06
 Reference value :  8.14579e-06
 Reference value :  8.19655e-06
 Reference value :  8.24419e-06
 Reference value :  8.25010e-06
 Reference value :  8.25011e-06
 Reference value :  8.25013e-06
 Reference value :  8.25017e-06
 Reference value :  8.25020e-06
 Reference value :  8.25022e-06
 Reference value :  8.25026e-06
 Reference value :  8.25032e-06
 Reference value :  8.25045e-06
 Reference value :  8.25070e-06
 Reference value :  8.25109e-06
 Reference value :  8.25156e-06
 Reference value :  8.25202e-06
 Reference value :  8.25251e-06
 Reference value :  8.25323e-06
 Reference value :  8.25392e-06
 Reference value :  8.25483e-06
 Reference value :  8.25575e-06
 Reference value :  8.25675e-06
 Reference value :  8.25838e-06
 Reference value :  8.26013e-06
 Reference value :  8.26308e-06
 Reference value :  8.26682e-06
 Reference value :  8.27430e-06
 Reference value :  8.28925e-06
 Reference value :  8.31916e-06
 Reference value :  8.37897e-06
 Reference value :  8.49860e-06
No. of Data Rows : 1256
ngspice-44 done
