
Note: Compatibility modes selected: hs a


Circuit: ** sch_path: /home/audrey/cace/sar-adc-using-sky130-pdk/runs/run_2025-09-07_18-50-06/parameters/power/run_1/power_consumption.sch

option SCALE: Scale is set to 1e-06 for instance and model parameters
option SCALE: Scale is set to 1e-06 for instance and model parameters
option SCALE: Scale is set to 1e-06 for instance and model parameters
option SCALE: Scale is set to 1e-06 for instance and model parameters
Doing analysis at TEMP = 27.000000 and TNOM = 27.000000

Using KLU as Direct Linear Solver
 Reference value :  0.00000e+00
 Reference value :  1.00000e-12
 Reference value :  4.00000e-12
 Reference value :  8.00000e-12
 Reference value :  1.60000e-11
 Reference value :  3.20000e-11
 Reference value :  6.40000e-11
 Reference value :  1.00000e-10
 Reference value :  1.06400e-10
 Reference value :  1.19200e-10
 Reference value :  1.44800e-10
 Reference value :  1.96000e-10
 Reference value :  2.98400e-10
 Reference value :  4.48181e-10
 Reference value :  7.26319e-10
 Reference value :  9.88390e-10
 Reference value :  1.41221e-09
 Reference value :  1.79563e-09
 Reference value :  2.21519e-09
 Reference value :  2.65894e-09
 Reference value :  3.18017e-09
 Reference value :  3.67977e-09
 Reference value :  4.17910e-09
 Reference value :  4.73050e-09
 Reference value :  5.36071e-09
 Reference value :  6.11095e-09
 Reference value :  6.86086e-09
 Reference value :  7.72389e-09
 Reference value :  8.63155e-09
 Reference value :  9.64907e-09
 Reference value :  1.08261e-08
 Reference value :  1.17437e-08
 Reference value :  1.24163e-08
 Reference value :  1.31555e-08
 Reference value :  1.40058e-08
 Reference value :  1.48698e-08
 Reference value :  1.62952e-08
 Reference value :  1.78400e-08
 Reference value :  1.93499e-08
 Reference value :  2.11678e-08
 Reference value :  2.24083e-08
 Reference value :  2.36088e-08
 Reference value :  2.44129e-08
 Reference value :  2.54226e-08
 Reference value :  2.74420e-08
 Reference value :  2.97670e-08
 Reference value :  3.37314e-08
 Reference value :  3.77354e-08
 Reference value :  4.19359e-08
 Reference value :  4.73109e-08
 Reference value :  6.04372e-08
 Reference value :  7.16106e-08
 Reference value :  9.10635e-08
 Reference value :  1.65689e-07
 Reference value :  2.41414e-07
 Reference value :  2.50110e-07
 Reference value :  2.50130e-07
 Reference value :  2.50200e-07
 Reference value :  2.50207e-07
 Reference value :  2.50220e-07
 Reference value :  2.50246e-07
 Reference value :  2.50299e-07
 Reference value :  2.50515e-07
 Reference value :  2.50692e-07
 Reference value :  2.50923e-07
 Reference value :  2.51316e-07
 Reference value :  2.51727e-07
 Reference value :  2.52158e-07
 Reference value :  2.53531e-07
 Reference value :  2.54066e-07
 Reference value :  2.54684e-07
 Reference value :  2.56183e-07
 Reference value :  2.56993e-07
 Reference value :  2.58381e-07
 Reference value :  2.62599e-07
 Reference value :  2.72816e-07
 Reference value :  2.84180e-07
 Reference value :  3.03173e-07
 Reference value :  3.39339e-07
 Reference value :  4.11670e-07
 Reference value :  5.00010e-07
 Reference value :  5.00030e-07
 Reference value :  5.00070e-07
 Reference value :  5.00100e-07
 Reference value :  5.00108e-07
 Reference value :  5.00124e-07
 Reference value :  5.00220e-07
 Reference value :  5.00518e-07
 Reference value :  5.00864e-07
 Reference value :  5.01817e-07
 Reference value :  5.02312e-07
 Reference value :  5.02776e-07
 Reference value :  5.03344e-07
 Reference value :  5.04596e-07
 Reference value :  5.06432e-07
 Reference value :  5.07764e-07
 Reference value :  5.08985e-07
 Reference value :  5.10312e-07
 Reference value :  5.11664e-07
 Reference value :  5.14684e-07
 Reference value :  5.16266e-07
 Reference value :  5.21017e-07
 Reference value :  5.31008e-07
 Reference value :  5.60242e-07
 Reference value :  6.58234e-07
 Reference value :  7.50110e-07
 Reference value :  7.50130e-07
 Reference value :  7.50200e-07
 Reference value :  7.50208e-07
 Reference value :  7.50224e-07
 Reference value :  7.50256e-07
 Reference value :  7.50448e-07
 Reference value :  7.50698e-07
 Reference value :  7.51020e-07
 Reference value :  7.51567e-07
 Reference value :  7.52584e-07
 Reference value :  7.53359e-07
 Reference value :  7.53869e-07
 Reference value :  7.54453e-07
 Reference value :  7.55026e-07
 Reference value :  7.55632e-07
 Reference value :  7.56457e-07
 Reference value :  7.57320e-07
 Reference value :  7.59048e-07
 Reference value :  7.61343e-07
 Reference value :  7.71883e-07
 Reference value :  7.85775e-07
 Reference value :  8.13558e-07
 Reference value :  8.69125e-07
 Reference value :  9.80258e-07
 Reference value :  1.00000e-06
 Reference value :  1.00001e-06
 Reference value :  1.00003e-06
 Reference value :  1.00007e-06
 Reference value :  1.00010e-06
 Reference value :  1.00011e-06
 Reference value :  1.00012e-06
 Reference value :  1.00016e-06
 Reference value :  1.00022e-06
 Reference value :  1.00034e-06
 Reference value :  1.00086e-06
 Reference value :  1.00131e-06
 Reference value :  1.00182e-06
 Reference value :  1.00231e-06
 Reference value :  1.00278e-06
 Reference value :  1.00332e-06
 Reference value :  1.00390e-06
 Reference value :  1.00449e-06
 Reference value :  1.00521e-06
 Reference value :  1.00584e-06
 Reference value :  1.00748e-06
 Reference value :  1.00837e-06
 Reference value :  1.00977e-06
 Reference value :  1.01133e-06
 Reference value :  1.01279e-06
 Reference value :  1.01390e-06
 Reference value :  1.01496e-06
 Reference value :  1.01611e-06
 Reference value :  1.01716e-06
 Reference value :  1.01825e-06
 Reference value :  1.01944e-06
 Reference value :  1.02117e-06
 Reference value :  1.02294e-06
 Reference value :  1.02617e-06
 Reference value :  1.03131e-06
 Reference value :  1.03916e-06
 Reference value :  1.04884e-06
 Reference value :  1.06136e-06
 Reference value :  1.07278e-06
 Reference value :  1.08108e-06
 Reference value :  1.08757e-06
 Reference value :  1.09399e-06
 Reference value :  1.10042e-06
 Reference value :  1.10689e-06
 Reference value :  1.11375e-06
 Reference value :  1.14289e-06
 Reference value :  1.16854e-06
 Reference value :  1.25010e-06
 Reference value :  1.25011e-06
 Reference value :  1.25013e-06
 Reference value :  1.25017e-06
 Reference value :  1.25020e-06
 Reference value :  1.25021e-06
 Reference value :  1.25022e-06
 Reference value :  1.25026e-06
 Reference value :  1.25032e-06
 Reference value :  1.25045e-06
 Reference value :  1.25070e-06
 Reference value :  1.25102e-06
 Reference value :  1.25156e-06
 Reference value :  1.25206e-06
 Reference value :  1.25258e-06
 Reference value :  1.25335e-06
 Reference value :  1.25385e-06
 Reference value :  1.25442e-06
 Reference value :  1.25511e-06
 Reference value :  1.25589e-06
 Reference value :  1.25666e-06
 Reference value :  1.25820e-06
 Reference value :  1.25988e-06
 Reference value :  1.26688e-06
 Reference value :  1.27500e-06
 Reference value :  1.29124e-06
 Reference value :  1.32374e-06
 Reference value :  1.38872e-06
 Reference value :  1.50000e-06
 Reference value :  1.50001e-06
 Reference value :  1.50003e-06
 Reference value :  1.50007e-06
 Reference value :  1.50010e-06
 Reference value :  1.50012e-06
 Reference value :  1.50016e-06
 Reference value :  1.50022e-06
 Reference value :  1.50034e-06
 Reference value :  1.50052e-06
 Reference value :  1.50086e-06
 Reference value :  1.50131e-06
 Reference value :  1.50175e-06
 Reference value :  1.50223e-06
 Reference value :  1.50268e-06
 Reference value :  1.50322e-06
 Reference value :  1.50379e-06
 Reference value :  1.50442e-06
 Reference value :  1.50521e-06
 Reference value :  1.50604e-06
 Reference value :  1.50673e-06
 Reference value :  1.50746e-06
 Reference value :  1.50839e-06
 Reference value :  1.50937e-06
 Reference value :  1.51032e-06
 Reference value :  1.51145e-06
 Reference value :  1.51518e-06
 Reference value :  1.51872e-06
 Reference value :  1.53663e-06
 Reference value :  1.55626e-06
 Reference value :  1.59552e-06
 Reference value :  1.67405e-06
 Reference value :  1.75010e-06
 Reference value :  1.75013e-06
 Reference value :  1.75017e-06
 Reference value :  1.75020e-06
 Reference value :  1.75021e-06
 Reference value :  1.75022e-06
 Reference value :  1.75032e-06
 Reference value :  1.75045e-06
 Reference value :  1.75070e-06
 Reference value :  1.75101e-06
 Reference value :  1.75156e-06
 Reference value :  1.75205e-06
 Reference value :  1.75258e-06
 Reference value :  1.75335e-06
 Reference value :  1.75386e-06
 Reference value :  1.75444e-06
 Reference value :  1.75501e-06
 Reference value :  1.75561e-06
 Reference value :  1.75646e-06
 Reference value :  1.75737e-06
 Reference value :  1.75829e-06
 Reference value :  1.75926e-06
 Reference value :  1.76065e-06
 Reference value :  1.76216e-06
 Reference value :  1.76499e-06
 Reference value :  1.76871e-06
 Reference value :  1.79105e-06
 Reference value :  1.82084e-06
 Reference value :  1.88041e-06
 Reference value :  1.99956e-06
 Reference value :  2.00000e-06
 Reference value :  2.00001e-06
 Reference value :  2.00003e-06
 Reference value :  2.00007e-06
 Reference value :  2.00010e-06
 Reference value :  2.00012e-06
 Reference value :  2.00022e-06
 Reference value :  2.00034e-06
 Reference value :  2.00052e-06
 Reference value :  2.00086e-06
 Reference value :  2.00131e-06
 Reference value :  2.00182e-06
 Reference value :  2.00231e-06
 Reference value :  2.00278e-06
 Reference value :  2.00334e-06
 Reference value :  2.00393e-06
 Reference value :  2.00457e-06
 Reference value :  2.00575e-06
 Reference value :  2.00641e-06
 Reference value :  2.00726e-06
 Reference value :  2.00818e-06
 Reference value :  2.00935e-06
 Reference value :  2.01043e-06
 Reference value :  2.01147e-06
 Reference value :  2.01263e-06
 Reference value :  2.01351e-06
 Reference value :  2.01437e-06
 Reference value :  2.01535e-06
 Reference value :  2.01637e-06
 Reference value :  2.01736e-06
 Reference value :  2.01852e-06
 Reference value :  2.01972e-06
 Reference value :  2.02157e-06
 Reference value :  2.02362e-06
 Reference value :  2.03546e-06
 Reference value :  2.04778e-06
 Reference value :  2.07244e-06
 Reference value :  2.10636e-06
 Reference value :  2.13808e-06
 Reference value :  2.16644e-06
 Reference value :  2.18304e-06
 Reference value :  2.20063e-06
 Reference value :  2.21997e-06
 Reference value :  2.23769e-06
 Reference value :  2.25011e-06
 Reference value :  2.25013e-06
 Reference value :  2.25017e-06
 Reference value :  2.25021e-06
 Reference value :  2.25026e-06
 Reference value :  2.25032e-06
 Reference value :  2.25045e-06
 Reference value :  2.25101e-06
 Reference value :  2.25151e-06
 Reference value :  2.25203e-06
 Reference value :  2.25252e-06
 Reference value :  2.25326e-06
 Reference value :  2.25379e-06
 Reference value :  2.25498e-06
 Reference value :  2.25560e-06
 Reference value :  2.25647e-06
 Reference value :  2.25929e-06
 Reference value :  2.26540e-06
 Reference value :  2.28644e-06
 Reference value :  2.35243e-06
 Reference value :  2.38963e-06
 Reference value :  2.42028e-06
 Reference value :  2.43693e-06
 Reference value :  2.45314e-06
 Reference value :  2.48644e-06
 Reference value :  2.50000e-06
 Reference value :  2.50001e-06
 Reference value :  2.50003e-06
 Reference value :  2.50007e-06
 Reference value :  2.50011e-06
 Reference value :  2.50016e-06
 Reference value :  2.50034e-06
 Reference value :  2.50052e-06
 Reference value :  2.50086e-06
 Reference value :  2.50131e-06
 Reference value :  2.50175e-06
 Reference value :  2.50267e-06
 Reference value :  2.50321e-06
 Reference value :  2.50378e-06
 Reference value :  2.50441e-06
 Reference value :  2.50520e-06
 Reference value :  2.50603e-06
 Reference value :  2.50672e-06
 Reference value :  2.50745e-06
 Reference value :  2.50838e-06
 Reference value :  2.50935e-06
 Reference value :  2.51029e-06
 Reference value :  2.51141e-06
 Reference value :  2.51512e-06
 Reference value :  2.51866e-06
 Reference value :  2.52521e-06
 Reference value :  2.53678e-06
 Reference value :  2.55676e-06
 Reference value :  2.67663e-06
 Reference value :  2.75011e-06
 Reference value :  2.75013e-06
 Reference value :  2.75020e-06
 Reference value :  2.75022e-06
 Reference value :  2.75026e-06
 Reference value :  2.75032e-06
 Reference value :  2.75045e-06
 Reference value :  2.75070e-06
 Reference value :  2.75101e-06
 Reference value :  2.75150e-06
 Reference value :  2.75202e-06
 Reference value :  2.75252e-06
 Reference value :  2.75326e-06
 Reference value :  2.75378e-06
 Reference value :  2.75437e-06
 Reference value :  2.75490e-06
 Reference value :  2.75548e-06
 Reference value :  2.75627e-06
 Reference value :  2.75712e-06
 Reference value :  2.75794e-06
 Reference value :  2.75894e-06
 Reference value :  2.76020e-06
 Reference value :  2.76167e-06
 Reference value :  2.76411e-06
 Reference value :  2.77315e-06
 Reference value :  2.79615e-06
 Reference value :  2.87065e-06
 Reference value :  2.96681e-06
 Reference value :  3.00001e-06
 Reference value :  3.00003e-06
 Reference value :  3.00007e-06
 Reference value :  3.00010e-06
 Reference value :  3.00011e-06
 Reference value :  3.00012e-06
 Reference value :  3.00016e-06
 Reference value :  3.00022e-06
 Reference value :  3.00052e-06
 Reference value :  3.00086e-06
 Reference value :  3.00131e-06
 Reference value :  3.00182e-06
 Reference value :  3.00231e-06
 Reference value :  3.00278e-06
 Reference value :  3.00334e-06
 Reference value :  3.00392e-06
 Reference value :  3.00457e-06
 Reference value :  3.00518e-06
 Reference value :  3.00575e-06
 Reference value :  3.00641e-06
 Reference value :  3.00726e-06
 Reference value :  3.00818e-06
 Reference value :  3.00935e-06
 Reference value :  3.01043e-06
 Reference value :  3.01147e-06
 Reference value :  3.01263e-06
 Reference value :  3.01351e-06
 Reference value :  3.01437e-06
 Reference value :  3.01535e-06
 Reference value :  3.01636e-06
 Reference value :  3.01736e-06
 Reference value :  3.01851e-06
 Reference value :  3.01970e-06
 Reference value :  3.02156e-06
 Reference value :  3.02720e-06
 Reference value :  3.03128e-06
 Reference value :  3.03551e-06
 Reference value :  3.03900e-06
 Reference value :  3.04152e-06
 Reference value :  3.04378e-06
 Reference value :  3.04971e-06
 Reference value :  3.05453e-06
 Reference value :  3.06029e-06
 Reference value :  3.06585e-06
 Reference value :  3.09073e-06
 Reference value :  3.11843e-06
 Reference value :  3.16762e-06
 Reference value :  3.22173e-06
 Reference value :  3.25011e-06
 Reference value :  3.25013e-06
 Reference value :  3.25017e-06
 Reference value :  3.25020e-06
 Reference value :  3.25021e-06
 Reference value :  3.25026e-06
 Reference value :  3.25032e-06
 Reference value :  3.25045e-06
 Reference value :  3.25070e-06
 Reference value :  3.25101e-06
 Reference value :  3.25150e-06
 Reference value :  3.25202e-06
 Reference value :  3.25251e-06
 Reference value :  3.25326e-06
 Reference value :  3.25379e-06
 Reference value :  3.25439e-06
 Reference value :  3.25497e-06
 Reference value :  3.25560e-06
 Reference value :  3.25647e-06
 Reference value :  3.25770e-06
 Reference value :  3.25928e-06
 Reference value :  3.26187e-06
 Reference value :  3.27240e-06
 Reference value :  3.31452e-06
 Reference value :  3.48299e-06
 Reference value :  3.50000e-06
 Reference value :  3.50001e-06
 Reference value :  3.50003e-06
 Reference value :  3.50007e-06
 Reference value :  3.50010e-06
 Reference value :  3.50011e-06
 Reference value :  3.50012e-06
 Reference value :  3.50016e-06
 Reference value :  3.50022e-06
 Reference value :  3.50034e-06
 Reference value :  3.50052e-06
 Reference value :  3.50086e-06
 Reference value :  3.50131e-06
 Reference value :  3.50182e-06
 Reference value :  3.50231e-06
 Reference value :  3.50278e-06
 Reference value :  3.50333e-06
 Reference value :  3.50391e-06
 Reference value :  3.50455e-06
 Reference value :  3.50549e-06
 Reference value :  3.50638e-06
 Reference value :  3.50718e-06
 Reference value :  3.50805e-06
 Reference value :  3.50888e-06
 Reference value :  3.50982e-06
 Reference value :  3.51087e-06
 Reference value :  3.51425e-06
 Reference value :  3.51875e-06
 Reference value :  3.52768e-06
 Reference value :  3.54553e-06
 Reference value :  3.58123e-06
 Reference value :  3.75010e-06
 Reference value :  3.75011e-06
 Reference value :  3.75013e-06
 Reference value :  3.75017e-06
 Reference value :  3.75020e-06
 Reference value :  3.75021e-06
 Reference value :  3.75022e-06
 Reference value :  3.75026e-06
 Reference value :  3.75032e-06
 Reference value :  3.75045e-06
 Reference value :  3.75070e-06
 Reference value :  3.75101e-06
 Reference value :  3.75150e-06
 Reference value :  3.75202e-06
 Reference value :  3.75251e-06
 Reference value :  3.75326e-06
 Reference value :  3.75377e-06
 Reference value :  3.75437e-06
 Reference value :  3.75490e-06
 Reference value :  3.75549e-06
 Reference value :  3.75627e-06
 Reference value :  3.75711e-06
 Reference value :  3.75878e-06
 Reference value :  3.76413e-06
 Reference value :  3.78146e-06
 Reference value :  3.80457e-06
 Reference value :  3.85079e-06
 Reference value :  3.94323e-06
 Reference value :  4.00000e-06
 Reference value :  4.00003e-06
 Reference value :  4.00007e-06
 Reference value :  4.00010e-06
 Reference value :  4.00011e-06
 Reference value :  4.00016e-06
 Reference value :  4.00034e-06
 Reference value :  4.00052e-06
 Reference value :  4.00086e-06
 Reference value :  4.00131e-06
 Reference value :  4.00182e-06
 Reference value :  4.00231e-06
 Reference value :  4.00278e-06
 Reference value :  4.00332e-06
 Reference value :  4.00390e-06
 Reference value :  4.00449e-06
 Reference value :  4.00521e-06
 Reference value :  4.00584e-06
 Reference value :  4.00650e-06
 Reference value :  4.00747e-06
 Reference value :  4.00836e-06
 Reference value :  4.00976e-06
 Reference value :  4.01132e-06
 Reference value :  4.01278e-06
 Reference value :  4.01389e-06
 Reference value :  4.01496e-06
 Reference value :  4.01611e-06
 Reference value :  4.01716e-06
 Reference value :  4.01824e-06
 Reference value :  4.01944e-06
 Reference value :  4.02307e-06
 Reference value :  4.02652e-06
 Reference value :  4.03175e-06
 Reference value :  4.04911e-06
 Reference value :  4.05767e-06
 Reference value :  4.06755e-06
 Reference value :  4.07417e-06
 Reference value :  4.08086e-06
 Reference value :  4.08822e-06
 Reference value :  4.09525e-06
 Reference value :  4.10251e-06
 Reference value :  4.11704e-06
 Reference value :  4.13048e-06
 Reference value :  4.14083e-06
 Reference value :  4.15085e-06
 Reference value :  4.15739e-06
 Reference value :  4.16609e-06
 Reference value :  4.18349e-06
 Reference value :  4.20101e-06
 Reference value :  4.23032e-06
 Reference value :  4.25010e-06
 Reference value :  4.25011e-06
 Reference value :  4.25013e-06
 Reference value :  4.25017e-06
 Reference value :  4.25020e-06
 Reference value :  4.25021e-06
 Reference value :  4.25022e-06
 Reference value :  4.25032e-06
 Reference value :  4.25045e-06
 Reference value :  4.25070e-06
 Reference value :  4.25101e-06
 Reference value :  4.25150e-06
 Reference value :  4.25202e-06
 Reference value :  4.25251e-06
 Reference value :  4.25325e-06
 Reference value :  4.25378e-06
 Reference value :  4.25439e-06
 Reference value :  4.25497e-06
 Reference value :  4.25560e-06
 Reference value :  4.25647e-06
 Reference value :  4.25768e-06
 Reference value :  4.25927e-06
 Reference value :  4.26184e-06
 Reference value :  4.26535e-06
 Reference value :  4.27239e-06
 Reference value :  4.31459e-06
 Reference value :  4.37086e-06
 Reference value :  4.48340e-06
 Reference value :  4.50000e-06
 Reference value :  4.50001e-06
 Reference value :  4.50003e-06
 Reference value :  4.50007e-06
 Reference value :  4.50010e-06
 Reference value :  4.50011e-06
 Reference value :  4.50012e-06
 Reference value :  4.50016e-06
 Reference value :  4.50022e-06
 Reference value :  4.50034e-06
 Reference value :  4.50052e-06
 Reference value :  4.50086e-06
 Reference value :  4.50131e-06
 Reference value :  4.50182e-06
 Reference value :  4.50231e-06
 Reference value :  4.50278e-06
 Reference value :  4.50333e-06
 Reference value :  4.50391e-06
 Reference value :  4.50455e-06
 Reference value :  4.50550e-06
 Reference value :  4.50639e-06
 Reference value :  4.50719e-06
 Reference value :  4.50805e-06
 Reference value :  4.50889e-06
 Reference value :  4.50982e-06
 Reference value :  4.51087e-06
 Reference value :  4.51200e-06
 Reference value :  4.51875e-06
 Reference value :  4.54554e-06
 Reference value :  4.65270e-06
 Reference value :  4.75011e-06
 Reference value :  4.75013e-06
 Reference value :  4.75017e-06
 Reference value :  4.75020e-06
 Reference value :  4.75021e-06
 Reference value :  4.75026e-06
 Reference value :  4.75032e-06
 Reference value :  4.75070e-06
 Reference value :  4.75101e-06
 Reference value :  4.75150e-06
 Reference value :  4.75202e-06
 Reference value :  4.75325e-06
 Reference value :  4.75377e-06
 Reference value :  4.75436e-06
 Reference value :  4.75490e-06
 Reference value :  4.75548e-06
 Reference value :  4.75626e-06
 Reference value :  4.75877e-06
 Reference value :  4.76411e-06
 Reference value :  4.78140e-06
 Reference value :  4.85058e-06
 Reference value :  5.00000e-06
 Reference value :  5.00003e-06
 Reference value :  5.00010e-06
 Reference value :  5.00011e-06
 Reference value :  5.00012e-06
 Reference value :  5.00016e-06
 Reference value :  5.00022e-06
 Reference value :  5.00034e-06
 Reference value :  5.00052e-06
 Reference value :  5.00086e-06
 Reference value :  5.00131e-06
 Reference value :  5.00182e-06
 Reference value :  5.00231e-06
 Reference value :  5.00278e-06
 Reference value :  5.00332e-06
 Reference value :  5.00390e-06
 Reference value :  5.00449e-06
 Reference value :  5.00521e-06
 Reference value :  5.00584e-06
 Reference value :  5.00650e-06
 Reference value :  5.00747e-06
 Reference value :  5.00976e-06
 Reference value :  5.01133e-06
 Reference value :  5.01279e-06
 Reference value :  5.01389e-06
 Reference value :  5.01496e-06
 Reference value :  5.01611e-06
 Reference value :  5.01716e-06
 Reference value :  5.01824e-06
 Reference value :  5.01944e-06
 Reference value :  5.02307e-06
 Reference value :  5.02652e-06
 Reference value :  5.03128e-06
 Reference value :  5.04205e-06
 Reference value :  5.05067e-06
 Reference value :  5.05622e-06
 Reference value :  5.06227e-06
 Reference value :  5.06887e-06
 Reference value :  5.08244e-06
 Reference value :  5.10397e-06
 Reference value :  5.12302e-06
 Reference value :  5.19968e-06
 Reference value :  5.25011e-06
 Reference value :  5.25013e-06
 Reference value :  5.25017e-06
 Reference value :  5.25020e-06
 Reference value :  5.25021e-06
 Reference value :  5.25026e-06
 Reference value :  5.25032e-06
 Reference value :  5.25045e-06
 Reference value :  5.25070e-06
 Reference value :  5.25101e-06
 Reference value :  5.25150e-06
 Reference value :  5.25202e-06
 Reference value :  5.25251e-06
 Reference value :  5.25325e-06
 Reference value :  5.25375e-06
 Reference value :  5.25432e-06
 Reference value :  5.25493e-06
 Reference value :  5.25638e-06
 Reference value :  5.25782e-06
 Reference value :  5.25925e-06
 Reference value :  5.26203e-06
 Reference value :  5.27174e-06
 Reference value :  5.31055e-06
 Reference value :  5.36230e-06
 Reference value :  5.50000e-06
 Reference value :  5.50001e-06
 Reference value :  5.50003e-06
 Reference value :  5.50007e-06
 Reference value :  5.50010e-06
 Reference value :  5.50011e-06
 Reference value :  5.50016e-06
 Reference value :  5.50022e-06
 Reference value :  5.50034e-06
 Reference value :  5.50052e-06
 Reference value :  5.50086e-06
 Reference value :  5.50131e-06
 Reference value :  5.50175e-06
 Reference value :  5.50223e-06
 Reference value :  5.50268e-06
 Reference value :  5.50321e-06
 Reference value :  5.50378e-06
 Reference value :  5.50441e-06
 Reference value :  5.50521e-06
 Reference value :  5.50604e-06
 Reference value :  5.50673e-06
 Reference value :  5.50746e-06
 Reference value :  5.50839e-06
 Reference value :  5.51031e-06
 Reference value :  5.51144e-06
 Reference value :  5.51270e-06
 Reference value :  5.51512e-06
 Reference value :  5.52489e-06
 Reference value :  5.55467e-06
 Reference value :  5.66732e-06
 Reference value :  5.75011e-06
 Reference value :  5.75013e-06
 Reference value :  5.75017e-06
 Reference value :  5.75020e-06
 Reference value :  5.75021e-06
 Reference value :  5.75022e-06
 Reference value :  5.75032e-06
 Reference value :  5.75070e-06
 Reference value :  5.75101e-06
 Reference value :  5.75150e-06
 Reference value :  5.75202e-06
 Reference value :  5.75251e-06
 Reference value :  5.75325e-06
 Reference value :  5.75377e-06
 Reference value :  5.75436e-06
 Reference value :  5.75489e-06
 Reference value :  5.75548e-06
 Reference value :  5.75626e-06
 Reference value :  5.75711e-06
 Reference value :  5.75793e-06
 Reference value :  5.76018e-06
 Reference value :  5.76165e-06
 Reference value :  5.76708e-06
 Reference value :  5.78156e-06
 Reference value :  5.82017e-06
 Reference value :  5.86864e-06
 Reference value :  5.96273e-06
 Reference value :  6.00000e-06
 Reference value :  6.00003e-06
 Reference value :  6.00010e-06
 Reference value :  6.00012e-06
 Reference value :  6.00022e-06
 Reference value :  6.00034e-06
 Reference value :  6.00052e-06
 Reference value :  6.00086e-06
 Reference value :  6.00131e-06
 Reference value :  6.00182e-06
 Reference value :  6.00231e-06
 Reference value :  6.00278e-06
 Reference value :  6.00334e-06
 Reference value :  6.00393e-06
 Reference value :  6.00457e-06
 Reference value :  6.00575e-06
 Reference value :  6.00641e-06
 Reference value :  6.00724e-06
 Reference value :  6.00817e-06
 Reference value :  6.00934e-06
 Reference value :  6.01043e-06
 Reference value :  6.01145e-06
 Reference value :  6.01262e-06
 Reference value :  6.01349e-06
 Reference value :  6.01432e-06
 Reference value :  6.01542e-06
 Reference value :  6.01641e-06
 Reference value :  6.01748e-06
 Reference value :  6.01869e-06
 Reference value :  6.01997e-06
 Reference value :  6.02186e-06
 Reference value :  6.02427e-06
 Reference value :  6.02910e-06
 Reference value :  6.04292e-06
 Reference value :  6.05186e-06
 Reference value :  6.06693e-06
 Reference value :  6.14458e-06
 Reference value :  6.24811e-06
 Reference value :  6.25010e-06
 Reference value :  6.25013e-06
 Reference value :  6.25017e-06
 Reference value :  6.25020e-06
 Reference value :  6.25022e-06
 Reference value :  6.25032e-06
 Reference value :  6.25045e-06
 Reference value :  6.25070e-06
 Reference value :  6.25101e-06
 Reference value :  6.25150e-06
 Reference value :  6.25202e-06
 Reference value :  6.25251e-06
 Reference value :  6.25325e-06
 Reference value :  6.25378e-06
 Reference value :  6.25438e-06
 Reference value :  6.25497e-06
 Reference value :  6.25559e-06
 Reference value :  6.25647e-06
 Reference value :  6.25768e-06
 Reference value :  6.26183e-06
 Reference value :  6.26534e-06
 Reference value :  6.28642e-06
 Reference value :  6.37075e-06
 Reference value :  6.48318e-06
 Reference value :  6.50000e-06
 Reference value :  6.50001e-06
 Reference value :  6.50003e-06
 Reference value :  6.50007e-06
 Reference value :  6.50010e-06
 Reference value :  6.50012e-06
 Reference value :  6.50016e-06
 Reference value :  6.50034e-06
 Reference value :  6.50052e-06
 Reference value :  6.50086e-06
 Reference value :  6.50182e-06
 Reference value :  6.50231e-06
 Reference value :  6.50278e-06
 Reference value :  6.50333e-06
 Reference value :  6.50391e-06
 Reference value :  6.50455e-06
 Reference value :  6.50549e-06
 Reference value :  6.50638e-06
 Reference value :  6.50718e-06
 Reference value :  6.50805e-06
 Reference value :  6.50889e-06
 Reference value :  6.51087e-06
 Reference value :  6.51425e-06
 Reference value :  6.52766e-06
 Reference value :  6.58113e-06
 Reference value :  6.75010e-06
 Reference value :  6.75013e-06
 Reference value :  6.75017e-06
 Reference value :  6.75021e-06
 Reference value :  6.75026e-06
 Reference value :  6.75045e-06
 Reference value :  6.75070e-06
 Reference value :  6.75101e-06
 Reference value :  6.75150e-06
 Reference value :  6.75202e-06
 Reference value :  6.75251e-06
 Reference value :  6.75325e-06
 Reference value :  6.75377e-06
 Reference value :  6.75436e-06
 Reference value :  6.75490e-06
 Reference value :  6.75548e-06
 Reference value :  6.75626e-06
 Reference value :  6.75877e-06
 Reference value :  6.76410e-06
 Reference value :  6.76984e-06
 Reference value :  6.78132e-06
 Reference value :  6.80429e-06
 Reference value :  6.94207e-06
 Reference value :  7.00000e-06
 Reference value :  7.00001e-06
 Reference value :  7.00003e-06
 Reference value :  7.00007e-06
 Reference value :  7.00010e-06
 Reference value :  7.00011e-06
 Reference value :  7.00016e-06
 Reference value :  7.00022e-06
 Reference value :  7.00034e-06
 Reference value :  7.00052e-06
 Reference value :  7.00086e-06
 Reference value :  7.00131e-06
 Reference value :  7.00182e-06
 Reference value :  7.00231e-06
 Reference value :  7.00278e-06
 Reference value :  7.00332e-06
 Reference value :  7.00390e-06
 Reference value :  7.00449e-06
 Reference value :  7.00521e-06
 Reference value :  7.00584e-06
 Reference value :  7.00650e-06
 Reference value :  7.00747e-06
 Reference value :  7.00836e-06
 Reference value :  7.00976e-06
 Reference value :  7.01132e-06
 Reference value :  7.01278e-06
 Reference value :  7.01389e-06
 Reference value :  7.01496e-06
 Reference value :  7.01611e-06
 Reference value :  7.01716e-06
 Reference value :  7.01825e-06
 Reference value :  7.01944e-06
 Reference value :  7.02136e-06
 Reference value :  7.02309e-06
 Reference value :  7.03072e-06
 Reference value :  7.04974e-06
 Reference value :  7.11136e-06
 Reference value :  7.25010e-06
 Reference value :  7.25013e-06
 Reference value :  7.25020e-06
 Reference value :  7.25022e-06
 Reference value :  7.25032e-06
 Reference value :  7.25045e-06
 Reference value :  7.25070e-06
 Reference value :  7.25150e-06
 Reference value :  7.25202e-06
 Reference value :  7.25251e-06
 Reference value :  7.25325e-06
 Reference value :  7.25378e-06
 Reference value :  7.25438e-06
 Reference value :  7.25497e-06
 Reference value :  7.25559e-06
 Reference value :  7.25647e-06
 Reference value :  7.25766e-06
 Reference value :  7.26180e-06
 Reference value :  7.26532e-06
 Reference value :  7.27235e-06
 Reference value :  7.31456e-06
 Reference value :  7.37083e-06
 Reference value :  7.48337e-06
 Reference value :  7.50001e-06
 Reference value :  7.50003e-06
 Reference value :  7.50007e-06
 Reference value :  7.50011e-06
 Reference value :  7.50012e-06
 Reference value :  7.50016e-06
 Reference value :  7.50022e-06
 Reference value :  7.50034e-06
 Reference value :  7.50086e-06
 Reference value :  7.50131e-06
 Reference value :  7.50231e-06
 Reference value :  7.50333e-06
 Reference value :  7.50391e-06
 Reference value :  7.50550e-06
 Reference value :  7.50639e-06
 Reference value :  7.50719e-06
 Reference value :  7.50806e-06
 Reference value :  7.50889e-06
 Reference value :  7.50983e-06
 Reference value :  7.51088e-06
 Reference value :  7.51425e-06
 Reference value :  7.52766e-06
 Reference value :  7.54549e-06
 Reference value :  7.58115e-06
 Reference value :  7.75010e-06
 Reference value :  7.75013e-06
 Reference value :  7.75017e-06
 Reference value :  7.75021e-06
 Reference value :  7.75026e-06
 Reference value :  7.75045e-06
 Reference value :  7.75070e-06
 Reference value :  7.75101e-06
 Reference value :  7.75150e-06
 Reference value :  7.75202e-06
 Reference value :  7.75251e-06
 Reference value :  7.75325e-06
 Reference value :  7.75377e-06
 Reference value :  7.75436e-06
 Reference value :  7.75490e-06
 Reference value :  7.75548e-06
 Reference value :  7.75626e-06
 Reference value :  7.75710e-06
 Reference value :  7.76087e-06
 Reference value :  7.76983e-06
 Reference value :  7.78131e-06
 Reference value :  7.85018e-06
 Reference value :  8.00000e-06
 Reference value :  8.00001e-06
 Reference value :  8.00003e-06
 Reference value :  8.00007e-06
 Reference value :  8.00010e-06
 Reference value :  8.00012e-06
 Reference value :  8.00022e-06
 Reference value :  8.00034e-06
 Reference value :  8.00052e-06
 Reference value :  8.00086e-06
 Reference value :  8.00131e-06
 Reference value :  8.00182e-06
 Reference value :  8.00231e-06
 Reference value :  8.00278e-06
 Reference value :  8.00332e-06
 Reference value :  8.00390e-06
 Reference value :  8.00449e-06
 Reference value :  8.00521e-06
 Reference value :  8.00584e-06
 Reference value :  8.00650e-06
 Reference value :  8.00747e-06
 Reference value :  8.00836e-06
 Reference value :  8.00925e-06
 Reference value :  8.01026e-06
 Reference value :  8.01369e-06
 Reference value :  8.01782e-06
 Reference value :  8.04105e-06
 Reference value :  8.07156e-06
 Reference value :  8.13257e-06
 Reference value :  8.25011e-06
 Reference value :  8.25013e-06
 Reference value :  8.25017e-06
 Reference value :  8.25020e-06
 Reference value :  8.25022e-06
 Reference value :  8.25032e-06
 Reference value :  8.25045e-06
 Reference value :  8.25070e-06
 Reference value :  8.25101e-06
 Reference value :  8.25150e-06
 Reference value :  8.25202e-06
 Reference value :  8.25251e-06
 Reference value :  8.25325e-06
 Reference value :  8.25400e-06
 Reference value :  8.25501e-06
 Reference value :  8.25603e-06
 Reference value :  8.25854e-06
 Reference value :  8.26319e-06
 Reference value :  8.27752e-06
 Reference value :  8.33487e-06
 Reference value :  8.41133e-06
No. of Data Rows : 1234
ngspice-44 done
