
Note: Compatibility modes selected: hs a


Circuit: ** sch_path: /home/samantha/cace/sar-adc-using-sky130-pdk/runs/run_2025-08-20_23-09-23/parameters/power/run_00/transient.sch

option SCALE: Scale is set to 1e-06 for instance and model parameters
option SCALE: Scale is set to 1e-06 for instance and model parameters
option SCALE: Scale is set to 1e-06 for instance and model parameters
option SCALE: Scale is set to 1e-06 for instance and model parameters
Doing analysis at TEMP = 27.000000 and TNOM = 27.000000

Using KLU as Direct Linear Solver
Operating point simulation skipped by 'uic',
  now using transient initial conditions.
 Reference value :  5.00000e-12
 Reference value :  5.14000e-12
 Reference value :  5.98000e-12
 Reference value :  8.68955e-12
 Reference value :  1.60788e-11
 Reference value :  3.44351e-11
 Reference value :  1.07860e-10
 Reference value :  1.98172e-10
 Reference value :  5.00000e-10
 Reference value :  5.45691e-10
 Reference value :  7.28454e-10
 Reference value :  1.27115e-09
 Reference value :  2.15625e-09
 Reference value :  3.51255e-09
 Reference value :  5.50007e-09
 Reference value :  6.84122e-09
 Reference value :  7.79074e-09
 Reference value :  9.60756e-09
 Reference value :  1.18350e-08
 Reference value :  1.62298e-08
 Reference value :  2.00749e-08
 Reference value :  2.83933e-08
 Reference value :  3.23448e-08
 Reference value :  4.02842e-08
 Reference value :  6.39796e-08
 Reference value :  1.53370e-07
 Reference value :  3.88009e-07
 Reference value :  5.00000e-07
 Reference value :  5.24624e-07
 Reference value :  5.73873e-07
 Reference value :  8.69365e-07
 Reference value :  1.00055e-06
 Reference value :  1.00085e-06
 Reference value :  1.00100e-06
 Reference value :  1.00109e-06
 Reference value :  1.00139e-06
 Reference value :  1.00158e-06
 Reference value :  1.00242e-06
 Reference value :  1.00344e-06
 Reference value :  1.00427e-06
 Reference value :  1.00484e-06
 Reference value :  1.00622e-06
 Reference value :  1.00787e-06
 Reference value :  1.00926e-06
 Reference value :  1.01366e-06
 Reference value :  1.02594e-06
 Reference value :  1.06948e-06
 Reference value :  1.23544e-06
 Reference value :  1.89925e-06
 Reference value :  2.00005e-06
 Reference value :  2.00035e-06
 Reference value :  2.00053e-06
 Reference value :  2.00060e-06
 Reference value :  2.00102e-06
 Reference value :  2.00155e-06
 Reference value :  2.00245e-06
 Reference value :  2.00355e-06
 Reference value :  2.00422e-06
 Reference value :  2.00486e-06
 Reference value :  2.00567e-06
 Reference value :  2.00656e-06
 Reference value :  2.00917e-06
 Reference value :  2.01053e-06
 Reference value :  2.01177e-06
 Reference value :  2.01367e-06
 Reference value :  2.01528e-06
 Reference value :  2.01694e-06
 Reference value :  2.02207e-06
 Reference value :  2.02673e-06
 Reference value :  2.04411e-06
 Reference value :  2.06163e-06
 Reference value :  2.15439e-06
 Reference value :  2.51481e-06
 Reference value :  3.00050e-06
 Reference value :  3.00065e-06
 Reference value :  3.00100e-06
 Reference value :  3.00110e-06
 Reference value :  3.00145e-06
 Reference value :  3.00213e-06
 Reference value :  3.00261e-06
 Reference value :  3.00310e-06
 Reference value :  3.00377e-06
 Reference value :  3.00449e-06
 Reference value :  3.00502e-06
 Reference value :  3.00564e-06
 Reference value :  3.00706e-06
 Reference value :  3.00790e-06
 Reference value :  3.00871e-06
 Reference value :  3.00970e-06
 Reference value :  3.01259e-06
 Reference value :  3.01781e-06
 Reference value :  3.03060e-06
 Reference value :  3.04328e-06
 Reference value :  3.09330e-06
 Reference value :  3.24254e-06
 Reference value :  3.83679e-06
 Reference value :  4.00005e-06
 Reference value :  4.00015e-06
 Reference value :  4.00050e-06
 Reference value :  4.00053e-06
 Reference value :  4.00074e-06
 Reference value :  4.00155e-06
 Reference value :  4.00202e-06
 Reference value :  4.00247e-06
 Reference value :  4.00297e-06
 Reference value :  4.00351e-06
 Reference value :  4.00409e-06
 Reference value :  4.00461e-06
 Reference value :  4.00518e-06
 Reference value :  4.00564e-06
 Reference value :  4.00619e-06
 Reference value :  4.00757e-06
 Reference value :  4.00848e-06
 Reference value :  4.01067e-06
 Reference value :  4.01167e-06
 Reference value :  4.01280e-06
 Reference value :  4.01371e-06
 Reference value :  4.01461e-06
 Reference value :  4.01559e-06
 Reference value :  4.01661e-06
 Reference value :  4.01763e-06
 Reference value :  4.01878e-06
 Reference value :  4.01998e-06
 Reference value :  4.02189e-06
 Reference value :  4.02391e-06
 Reference value :  4.02793e-06
 Reference value :  4.03521e-06
 Reference value :  4.06935e-06
 Reference value :  4.18018e-06
 Reference value :  4.25021e-06
 Reference value :  4.37286e-06
 Reference value :  4.49595e-06
 Reference value :  4.62224e-06
 Reference value :  5.00050e-06
 Reference value :  5.00065e-06
 Reference value :  5.00085e-06
 Reference value :  5.00100e-06
 Reference value :  5.00103e-06
 Reference value :  5.00110e-06
 Reference value :  5.00124e-06
 Reference value :  5.00145e-06
 Reference value :  5.00213e-06
 Reference value :  5.00261e-06
 Reference value :  5.00310e-06
 Reference value :  5.00377e-06
 Reference value :  5.00449e-06
 Reference value :  5.00502e-06
 Reference value :  5.00622e-06
 Reference value :  5.00701e-06
 Reference value :  5.00785e-06
 Reference value :  5.01169e-06
 Reference value :  5.03279e-06
 Reference value :  5.10376e-06
 Reference value :  5.38763e-06
 Reference value :  6.00000e-06
 Reference value :  6.00005e-06
 Reference value :  6.00015e-06
 Reference value :  6.00035e-06
 Reference value :  6.00050e-06
 Reference value :  6.00053e-06
 Reference value :  6.00074e-06
 Reference value :  6.00102e-06
 Reference value :  6.00155e-06
 Reference value :  6.00245e-06
 Reference value :  6.00354e-06
 Reference value :  6.00419e-06
 Reference value :  6.00482e-06
 Reference value :  6.00555e-06
 Reference value :  6.00645e-06
 Reference value :  6.00710e-06
 Reference value :  6.00788e-06
 Reference value :  6.00878e-06
 Reference value :  6.01069e-06
 Reference value :  6.01186e-06
 Reference value :  6.01546e-06
 Reference value :  6.02446e-06
 Reference value :  6.04999e-06
 Reference value :  6.14525e-06
 Reference value :  6.52627e-06
 Reference value :  7.00055e-06
 Reference value :  7.00065e-06
 Reference value :  7.00085e-06
 Reference value :  7.00100e-06
 Reference value :  7.00110e-06
 Reference value :  7.00124e-06
 Reference value :  7.00145e-06
 Reference value :  7.00213e-06
 Reference value :  7.00261e-06
 Reference value :  7.00377e-06
 Reference value :  7.00448e-06
 Reference value :  7.00502e-06
 Reference value :  7.00564e-06
 Reference value :  7.00712e-06
 Reference value :  7.00879e-06
 Reference value :  7.00975e-06
 Reference value :  7.01267e-06
 Reference value :  7.01802e-06
 Reference value :  7.03109e-06
 Reference value :  7.06352e-06
 Reference value :  7.14746e-06
 Reference value :  7.46478e-06
 Reference value :  8.00000e-06
 Reference value :  8.00015e-06
 Reference value :  8.00050e-06
 Reference value :  8.00060e-06
 Reference value :  8.00074e-06
 Reference value :  8.00102e-06
 Reference value :  8.00155e-06
 Reference value :  8.00202e-06
 Reference value :  8.00247e-06
 Reference value :  8.00297e-06
 Reference value :  8.00351e-06
 Reference value :  8.00409e-06
 Reference value :  8.00461e-06
 Reference value :  8.00518e-06
 Reference value :  8.00564e-06
 Reference value :  8.00619e-06
 Reference value :  8.00683e-06
 Reference value :  8.00757e-06
 Reference value :  8.00848e-06
 Reference value :  8.00979e-06
 Reference value :  8.01067e-06
 Reference value :  8.01167e-06
 Reference value :  8.01281e-06
 Reference value :  8.01371e-06
 Reference value :  8.01461e-06
 Reference value :  8.01559e-06
 Reference value :  8.01661e-06
 Reference value :  8.01878e-06
 Reference value :  8.01997e-06
 Reference value :  8.02189e-06
 Reference value :  8.02389e-06
 Reference value :  8.02790e-06
 Reference value :  8.03512e-06
 Reference value :  8.04638e-06
 Reference value :  8.06890e-06
 Reference value :  8.14972e-06
 Reference value :  8.34011e-06
 Reference value :  8.41628e-06
 Reference value :  8.50534e-06
 Reference value :  8.81007e-06
 Reference value :  9.00050e-06
 Reference value :  9.00055e-06
 Reference value :  9.00065e-06
 Reference value :  9.00085e-06
 Reference value :  9.00100e-06
 Reference value :  9.00103e-06
 Reference value :  9.00110e-06
 Reference value :  9.00124e-06
 Reference value :  9.00145e-06
 Reference value :  9.00167e-06
 Reference value :  9.00213e-06
 Reference value :  9.00261e-06
 Reference value :  9.00310e-06
 Reference value :  9.00377e-06
 Reference value :  9.00449e-06
 Reference value :  9.00502e-06
 Reference value :  9.00564e-06
 Reference value :  9.00622e-06
 Reference value :  9.00701e-06
 Reference value :  9.00785e-06
 Reference value :  9.00952e-06
 Reference value :  9.01169e-06
 Reference value :  9.01505e-06
 Reference value :  9.02096e-06
 Reference value :  9.03279e-06
 Reference value :  9.05636e-06
 Reference value :  9.10349e-06
 Reference value :  9.38631e-06
 Reference value :  9.76341e-06
 Reference value :  1.00000e-05
 Reference value :  1.00000e-05
 Reference value :  1.00001e-05
 Reference value :  1.00003e-05
 Reference value :  1.00005e-05
 Reference value :  1.00005e-05
 Reference value :  1.00006e-05
 Reference value :  1.00007e-05
 Reference value :  1.00010e-05
 Reference value :  1.00015e-05
 Reference value :  1.00020e-05
 Reference value :  1.00025e-05
 Reference value :  1.00030e-05
 Reference value :  1.00035e-05
 Reference value :  1.00042e-05
 Reference value :  1.00048e-05
 Reference value :  1.00056e-05
 Reference value :  1.00064e-05
 Reference value :  1.00071e-05
 Reference value :  1.00079e-05
 Reference value :  1.00088e-05
 Reference value :  1.00098e-05
 Reference value :  1.00118e-05
 Reference value :  1.00154e-05
 Reference value :  1.00187e-05
 Reference value :  1.00243e-05
 Reference value :  1.00495e-05
 Reference value :  1.01433e-05
 Reference value :  1.05185e-05
 Reference value :  1.10005e-05
 Reference value :  1.10006e-05
 Reference value :  1.10010e-05
 Reference value :  1.10011e-05
 Reference value :  1.10014e-05
 Reference value :  1.10021e-05
 Reference value :  1.10026e-05
 Reference value :  1.10031e-05
 Reference value :  1.10045e-05
 Reference value :  1.10050e-05
 Reference value :  1.10063e-05
 Reference value :  1.10071e-05
 Reference value :  1.10088e-05
 Reference value :  1.10109e-05
 Reference value :  1.10148e-05
 Reference value :  1.10234e-05
 Reference value :  1.10439e-05
 Reference value :  1.10946e-05
 Reference value :  1.12532e-05
 Reference value :  1.18879e-05
 Reference value :  1.20000e-05
 Reference value :  1.20003e-05
 Reference value :  1.20005e-05
 Reference value :  1.20007e-05
 Reference value :  1.20015e-05
 Reference value :  1.20025e-05
 Reference value :  1.20030e-05
 Reference value :  1.20035e-05
 Reference value :  1.20046e-05
 Reference value :  1.20052e-05
 Reference value :  1.20056e-05
 Reference value :  1.20062e-05
 Reference value :  1.20068e-05
 Reference value :  1.20076e-05
 Reference value :  1.20098e-05
 Reference value :  1.20107e-05
 Reference value :  1.20128e-05
 Reference value :  1.20137e-05
 Reference value :  1.20156e-05
 Reference value :  1.20176e-05
 Reference value :  1.20188e-05
 Reference value :  1.20219e-05
 Reference value :  1.20278e-05
 Reference value :  1.20457e-05
 Reference value :  1.21025e-05
 Reference value :  1.21528e-05
 Reference value :  1.21910e-05
 Reference value :  1.22172e-05
 Reference value :  1.22507e-05
 Reference value :  1.23789e-05
 Reference value :  1.27065e-05
 Reference value :  1.30006e-05
 Reference value :  1.30007e-05
 Reference value :  1.30009e-05
 Reference value :  1.30010e-05
 Reference value :  1.30012e-05
 Reference value :  1.30014e-05
 Reference value :  1.30017e-05
 Reference value :  1.30021e-05
 Reference value :  1.30026e-05
 Reference value :  1.30031e-05
 Reference value :  1.30038e-05
 Reference value :  1.30045e-05
 Reference value :  1.30050e-05
 Reference value :  1.30056e-05
 Reference value :  1.30062e-05
 Reference value :  1.30070e-05
 Reference value :  1.30078e-05
 Reference value :  1.30117e-05
 Reference value :  1.30210e-05
 Reference value :  1.30328e-05
 Reference value :  1.30561e-05
 Reference value :  1.31961e-05
 Reference value :  1.37560e-05
 Reference value :  1.40000e-05
 Reference value :  1.40004e-05
 Reference value :  1.40005e-05
 Reference value :  1.40006e-05
 Reference value :  1.40007e-05
 Reference value :  1.40015e-05
 Reference value :  1.40025e-05
 Reference value :  1.40035e-05
 Reference value :  1.40042e-05
 Reference value :  1.40048e-05
 Reference value :  1.40064e-05
 Reference value :  1.40071e-05
 Reference value :  1.40079e-05
 Reference value :  1.40088e-05
 Reference value :  1.40098e-05
 Reference value :  1.40107e-05
 Reference value :  1.40118e-05
 Reference value :  1.40154e-05
 Reference value :  1.40243e-05
 Reference value :  1.40492e-05
 Reference value :  1.41421e-05
 Reference value :  1.45138e-05
 Reference value :  1.50005e-05
 Reference value :  1.50009e-05
 Reference value :  1.50010e-05
 Reference value :  1.50012e-05
 Reference value :  1.50014e-05
 Reference value :  1.50021e-05
 Reference value :  1.50026e-05
 Reference value :  1.50031e-05
 Reference value :  1.50038e-05
 Reference value :  1.50045e-05
 Reference value :  1.50050e-05
 Reference value :  1.50056e-05
 Reference value :  1.50063e-05
 Reference value :  1.50071e-05
 Reference value :  1.50088e-05
 Reference value :  1.50109e-05
 Reference value :  1.50148e-05
 Reference value :  1.50234e-05
 Reference value :  1.50311e-05
 Reference value :  1.50635e-05
 Reference value :  1.51474e-05
 Reference value :  1.54648e-05
 Reference value :  1.58878e-05
 Reference value :  1.60000e-05
 Reference value :  1.60004e-05
 Reference value :  1.60005e-05
 Reference value :  1.60006e-05
 Reference value :  1.60010e-05
 Reference value :  1.60020e-05
 Reference value :  1.60025e-05
 Reference value :  1.60030e-05
 Reference value :  1.60035e-05
 Reference value :  1.60041e-05
 Reference value :  1.60046e-05
 Reference value :  1.60052e-05
 Reference value :  1.60056e-05
 Reference value :  1.60068e-05
 Reference value :  1.60085e-05
 Reference value :  1.60107e-05
 Reference value :  1.60117e-05
 Reference value :  1.60128e-05
 Reference value :  1.60137e-05
 Reference value :  1.60146e-05
 Reference value :  1.60156e-05
 Reference value :  1.60166e-05
 Reference value :  1.60176e-05
 Reference value :  1.60187e-05
 Reference value :  1.60199e-05
 Reference value :  1.60218e-05
 Reference value :  1.60238e-05
 Reference value :  1.60276e-05
 Reference value :  1.60447e-05
 Reference value :  1.60922e-05
 Reference value :  1.61052e-05
 Reference value :  1.61183e-05
 Reference value :  1.61348e-05
 Reference value :  1.62063e-05
 Reference value :  1.63833e-05
 Reference value :  1.69729e-05
 Reference value :  1.70006e-05
 Reference value :  1.70007e-05
 Reference value :  1.70009e-05
 Reference value :  1.70010e-05
 Reference value :  1.70010e-05
 Reference value :  1.70011e-05
 Reference value :  1.70012e-05
 Reference value :  1.70014e-05
 Reference value :  1.70017e-05
 Reference value :  1.70026e-05
 Reference value :  1.70031e-05
 Reference value :  1.70038e-05
 Reference value :  1.70045e-05
 Reference value :  1.70050e-05
 Reference value :  1.70056e-05
 Reference value :  1.70062e-05
 Reference value :  1.70070e-05
 Reference value :  1.70078e-05
 Reference value :  1.70117e-05
 Reference value :  1.70210e-05
 Reference value :  1.70559e-05
 Reference value :  1.71022e-05
 Reference value :  1.73801e-05
 Reference value :  1.80000e-05
 Reference value :  1.80001e-05
 Reference value :  1.80004e-05
 Reference value :  1.80005e-05
 Reference value :  1.80005e-05
 Reference value :  1.80006e-05
 Reference value :  1.80007e-05
 Reference value :  1.80015e-05
 Reference value :  1.80025e-05
 Reference value :  1.80035e-05
 Reference value :  1.80048e-05
 Reference value :  1.80056e-05
 Reference value :  1.80064e-05
 Reference value :  1.80071e-05
 Reference value :  1.80079e-05
 Reference value :  1.80088e-05
 Reference value :  1.80107e-05
 Reference value :  1.80131e-05
 Reference value :  1.80242e-05
 Reference value :  1.80490e-05
 Reference value :  1.81413e-05
 Reference value :  1.85106e-05
 Reference value :  1.90006e-05
 Reference value :  1.90009e-05
 Reference value :  1.90010e-05
 Reference value :  1.90010e-05
 Reference value :  1.90011e-05
 Reference value :  1.90014e-05
 Reference value :  1.90021e-05
 Reference value :  1.90031e-05
 Reference value :  1.90045e-05
 Reference value :  1.90050e-05
 Reference value :  1.90063e-05
 Reference value :  1.90079e-05
 Reference value :  1.90088e-05
 Reference value :  1.90109e-05
 Reference value :  1.90148e-05
 Reference value :  1.90234e-05
 Reference value :  1.90439e-05
 Reference value :  1.90945e-05
 Reference value :  1.92532e-05
 Reference value :  1.98877e-05
 Reference value :  2.00001e-05
 Reference value :  2.00004e-05
 Reference value :  2.00005e-05
 Reference value :  2.00006e-05
 Reference value :  2.00010e-05
 Reference value :  2.00015e-05
 Reference value :  2.00020e-05
 Reference value :  2.00025e-05
 Reference value :  2.00030e-05
 Reference value :  2.00035e-05
 Reference value :  2.00046e-05
 Reference value :  2.00052e-05
 Reference value :  2.00056e-05
 Reference value :  2.00062e-05
 Reference value :  2.00076e-05
 Reference value :  2.00085e-05
 Reference value :  2.00098e-05
 Reference value :  2.00107e-05
 Reference value :  2.00117e-05
 Reference value :  2.00137e-05
 Reference value :  2.00157e-05
 Reference value :  2.00166e-05
 Reference value :  2.00177e-05
 Reference value :  2.00190e-05
 Reference value :  2.00222e-05
 Reference value :  2.00292e-05
 Reference value :  2.00514e-05
 Reference value :  2.00576e-05
 Reference value :  2.00726e-05
 Reference value :  2.01077e-05
 Reference value :  2.01788e-05
 Reference value :  2.02950e-05
 Reference value :  2.07216e-05
 Reference value :  2.10005e-05
 Reference value :  2.10008e-05
 Reference value :  2.10010e-05
 Reference value :  2.10011e-05
 Reference value :  2.10014e-05
 Reference value :  2.10021e-05
 Reference value :  2.10031e-05
 Reference value :  2.10045e-05
 Reference value :  2.10050e-05
 Reference value :  2.10056e-05
 Reference value :  2.10070e-05
 Reference value :  2.10095e-05
 Reference value :  2.10151e-05
 Reference value :  2.10328e-05
 Reference value :  2.11019e-05
 Reference value :  2.13783e-05
 Reference value :  2.20000e-05
 Reference value :  2.20001e-05
 Reference value :  2.20005e-05
 Reference value :  2.20005e-05
 Reference value :  2.20007e-05
 Reference value :  2.20015e-05
 Reference value :  2.20025e-05
 Reference value :  2.20035e-05
 Reference value :  2.20048e-05
 Reference value :  2.20056e-05
 Reference value :  2.20064e-05
 Reference value :  2.20071e-05
 Reference value :  2.20088e-05
 Reference value :  2.20107e-05
 Reference value :  2.20118e-05
 Reference value :  2.20154e-05
 Reference value :  2.20242e-05
 Reference value :  2.20488e-05
 Reference value :  2.21407e-05
 Reference value :  2.25082e-05
 Reference value :  2.30005e-05
 Reference value :  2.30005e-05
 Reference value :  2.30008e-05
 Reference value :  2.30010e-05
 Reference value :  2.30010e-05
 Reference value :  2.30011e-05
 Reference value :  2.30014e-05
 Reference value :  2.30017e-05
 Reference value :  2.30021e-05
 Reference value :  2.30026e-05
 Reference value :  2.30031e-05
 Reference value :  2.30038e-05
 Reference value :  2.30045e-05
 Reference value :  2.30050e-05
 Reference value :  2.30056e-05
 Reference value :  2.30063e-05
 Reference value :  2.30071e-05
 Reference value :  2.30079e-05
 Reference value :  2.30088e-05
 Reference value :  2.30097e-05
 Reference value :  2.30127e-05
 Reference value :  2.30180e-05
 Reference value :  2.30311e-05
 Reference value :  2.30635e-05
 Reference value :  2.31475e-05
 Reference value :  2.34652e-05
 Reference value :  2.40000e-05
 Reference value :  2.40001e-05
 Reference value :  2.40002e-05
 Reference value :  2.40004e-05
 Reference value :  2.40005e-05
 Reference value :  2.40006e-05
 Reference value :  2.40010e-05
 Reference value :  2.40015e-05
 Reference value :  2.40025e-05
 Reference value :  2.40030e-05
 Reference value :  2.40035e-05
 Reference value :  2.40046e-05
 Reference value :  2.40052e-05
 Reference value :  2.40056e-05
 Reference value :  2.40068e-05
 Reference value :  2.40076e-05
 Reference value :  2.40085e-05
 Reference value :  2.40098e-05
 Reference value :  2.40107e-05
 Reference value :  2.40117e-05
 Reference value :  2.40128e-05
 Reference value :  2.40137e-05
 Reference value :  2.40146e-05
 Reference value :  2.40156e-05
 Reference value :  2.40166e-05
 Reference value :  2.40177e-05
 Reference value :  2.40191e-05
 Reference value :  2.40203e-05
 Reference value :  2.40223e-05
 Reference value :  2.40290e-05
 Reference value :  2.40325e-05
 Reference value :  2.40362e-05
 Reference value :  2.40403e-05
 Reference value :  2.40547e-05
 Reference value :  2.40690e-05
 Reference value :  2.41406e-05
 Reference value :  2.42998e-05
 Reference value :  2.46997e-05
 Reference value :  2.50005e-05
 Reference value :  2.50005e-05
 Reference value :  2.50006e-05
 Reference value :  2.50008e-05
 Reference value :  2.50010e-05
 Reference value :  2.50010e-05
 Reference value :  2.50012e-05
 Reference value :  2.50014e-05
 Reference value :  2.50017e-05
 Reference value :  2.50021e-05
 Reference value :  2.50026e-05
 Reference value :  2.50031e-05
 Reference value :  2.50038e-05
 Reference value :  2.50045e-05
 Reference value :  2.50050e-05
 Reference value :  2.50056e-05
 Reference value :  2.50062e-05
 Reference value :  2.50070e-05
 Reference value :  2.50095e-05
 Reference value :  2.50117e-05
 Reference value :  2.50151e-05
 Reference value :  2.50210e-05
 Reference value :  2.50328e-05
 Reference value :  2.51016e-05
 Reference value :  2.51934e-05
 Reference value :  2.53769e-05
 Reference value :  2.57440e-05
 Reference value :  2.60000e-05
 Reference value :  2.60001e-05
 Reference value :  2.60002e-05
 Reference value :  2.60004e-05
 Reference value :  2.60005e-05
 Reference value :  2.60006e-05
 Reference value :  2.60007e-05
 Reference value :  2.60010e-05
 Reference value :  2.60015e-05
 Reference value :  2.60020e-05
 Reference value :  2.60025e-05
 Reference value :  2.60030e-05
 Reference value :  2.60035e-05
 Reference value :  2.60042e-05
 Reference value :  2.60048e-05
 Reference value :  2.60056e-05
 Reference value :  2.60064e-05
 Reference value :  2.60071e-05
 Reference value :  2.60088e-05
 Reference value :  2.60098e-05
 Reference value :  2.60107e-05
 Reference value :  2.60118e-05
 Reference value :  2.60131e-05
 Reference value :  2.60154e-05
 Reference value :  2.60186e-05
 Reference value :  2.60241e-05
 Reference value :  2.60334e-05
 Reference value :  2.60487e-05
 Reference value :  2.60792e-05
 Reference value :  2.62623e-05
 Reference value :  2.69945e-05
 Reference value :  2.70005e-05
 Reference value :  2.70006e-05
 Reference value :  2.70007e-05
 Reference value :  2.70009e-05
 Reference value :  2.70010e-05
 Reference value :  2.70010e-05
 Reference value :  2.70011e-05
 Reference value :  2.70012e-05
 Reference value :  2.70014e-05
 Reference value :  2.70017e-05
 Reference value :  2.70021e-05
 Reference value :  2.70026e-05
 Reference value :  2.70031e-05
 Reference value :  2.70038e-05
 Reference value :  2.70045e-05
 Reference value :  2.70050e-05
 Reference value :  2.70056e-05
 Reference value :  2.70063e-05
 Reference value :  2.70071e-05
 Reference value :  2.70079e-05
 Reference value :  2.70088e-05
 Reference value :  2.70097e-05
 Reference value :  2.70109e-05
 Reference value :  2.70127e-05
 Reference value :  2.70180e-05
 Reference value :  2.70311e-05
 Reference value :  2.70439e-05
 Reference value :  2.70946e-05
 Reference value :  2.71475e-05
 Reference value :  2.74651e-05
 Reference value :  2.78886e-05
 Reference value :  2.80000e-05
 Reference value :  2.80004e-05
 Reference value :  2.80005e-05
 Reference value :  2.80005e-05
 Reference value :  2.80006e-05
 Reference value :  2.80007e-05
 Reference value :  2.80010e-05
 Reference value :  2.80015e-05
 Reference value :  2.80020e-05
 Reference value :  2.80025e-05
 Reference value :  2.80030e-05
 Reference value :  2.80035e-05
 Reference value :  2.80041e-05
 Reference value :  2.80046e-05
 Reference value :  2.80052e-05
 Reference value :  2.80056e-05
 Reference value :  2.80062e-05
 Reference value :  2.80068e-05
 Reference value :  2.80076e-05
 Reference value :  2.80085e-05
 Reference value :  2.80098e-05
 Reference value :  2.80107e-05
 Reference value :  2.80117e-05
 Reference value :  2.80128e-05
 Reference value :  2.80137e-05
 Reference value :  2.80146e-05
 Reference value :  2.80156e-05
 Reference value :  2.80166e-05
 Reference value :  2.80177e-05
 Reference value :  2.80190e-05
 Reference value :  2.80203e-05
 Reference value :  2.80223e-05
 Reference value :  2.80242e-05
 Reference value :  2.80269e-05
 Reference value :  2.80301e-05
 Reference value :  2.80467e-05
 Reference value :  2.80676e-05
 Reference value :  2.81095e-05
 Reference value :  2.83017e-05
 Reference value :  2.84932e-05
 Reference value :  2.90005e-05
 Reference value :  2.90006e-05
 Reference value :  2.90007e-05
 Reference value :  2.90009e-05
 Reference value :  2.90010e-05
 Reference value :  2.90011e-05
 Reference value :  2.90014e-05
 Reference value :  2.90017e-05
 Reference value :  2.90021e-05
 Reference value :  2.90026e-05
 Reference value :  2.90031e-05
 Reference value :  2.90038e-05
 Reference value :  2.90045e-05
 Reference value :  2.90050e-05
 Reference value :  2.90056e-05
 Reference value :  2.90062e-05
 Reference value :  2.90070e-05
 Reference value :  2.90078e-05
 Reference value :  2.90117e-05
 Reference value :  2.90210e-05
 Reference value :  2.90328e-05
 Reference value :  2.90556e-05
 Reference value :  2.91928e-05
 Reference value :  2.97413e-05
 Reference value :  3.00001e-05
 Reference value :  3.00002e-05
 Reference value :  3.00005e-05
 Reference value :  3.00005e-05
 Reference value :  3.00006e-05
 Reference value :  3.00010e-05
 Reference value :  3.00015e-05
 Reference value :  3.00020e-05
 Reference value :  3.00025e-05
 Reference value :  3.00030e-05
 Reference value :  3.00035e-05
 Reference value :  3.00042e-05
 Reference value :  3.00048e-05
 Reference value :  3.00056e-05
 Reference value :  3.00064e-05
 Reference value :  3.00071e-05
 Reference value :  3.00079e-05
 Reference value :  3.00088e-05
 Reference value :  3.00098e-05
 Reference value :  3.00118e-05
 Reference value :  3.00154e-05
 Reference value :  3.00241e-05
 Reference value :  3.00334e-05
 Reference value :  3.00486e-05
 Reference value :  3.00790e-05
 Reference value :  3.01399e-05
 Reference value :  3.05048e-05
 Reference value :  3.09915e-05
 Reference value :  3.10005e-05
 Reference value :  3.10005e-05
 Reference value :  3.10006e-05
 Reference value :  3.10008e-05
 Reference value :  3.10010e-05
 Reference value :  3.10010e-05
 Reference value :  3.10011e-05
 Reference value :  3.10014e-05
 Reference value :  3.10017e-05
 Reference value :  3.10021e-05
 Reference value :  3.10026e-05
 Reference value :  3.10031e-05
 Reference value :  3.10038e-05
 Reference value :  3.10045e-05
 Reference value :  3.10050e-05
 Reference value :  3.10056e-05
 Reference value :  3.10071e-05
 Reference value :  3.10088e-05
 Reference value :  3.10097e-05
 Reference value :  3.10109e-05
 Reference value :  3.10148e-05
 Reference value :  3.10234e-05
 Reference value :  3.10439e-05
 Reference value :  3.10635e-05
 Reference value :  3.11475e-05
 Reference value :  3.12534e-05
 Reference value :  3.14651e-05
 Reference value :  3.20000e-05
 Reference value :  3.20000e-05
 Reference value :  3.20001e-05
 Reference value :  3.20005e-05
 Reference value :  3.20005e-05
 Reference value :  3.20007e-05
 Reference value :  3.20010e-05
 Reference value :  3.20015e-05
 Reference value :  3.20020e-05
 Reference value :  3.20025e-05
 Reference value :  3.20030e-05
 Reference value :  3.20035e-05
 Reference value :  3.20046e-05
 Reference value :  3.20052e-05
 Reference value :  3.20056e-05
 Reference value :  3.20062e-05
 Reference value :  3.20068e-05
 Reference value :  3.20076e-05
 Reference value :  3.20083e-05
 Reference value :  3.20091e-05
 Reference value :  3.20098e-05
 Reference value :  3.20106e-05
 Reference value :  3.20115e-05
 Reference value :  3.20124e-05
 Reference value :  3.20144e-05
 Reference value :  3.20157e-05
 Reference value :  3.20166e-05
 Reference value :  3.20194e-05
 Reference value :  3.20223e-05
 Reference value :  3.20264e-05
 Reference value :  3.20471e-05
 Reference value :  3.20689e-05
 Reference value :  3.21060e-05
 Reference value :  3.21725e-05
 Reference value :  3.25049e-05
 Reference value :  3.30005e-05
 Reference value :  3.30006e-05
 Reference value :  3.30009e-05
 Reference value :  3.30010e-05
 Reference value :  3.30010e-05
 Reference value :  3.30011e-05
 Reference value :  3.30015e-05
 Reference value :  3.30022e-05
 Reference value :  3.30027e-05
 Reference value :  3.30032e-05
 Reference value :  3.30039e-05
 Reference value :  3.30046e-05
 Reference value :  3.30056e-05
 Reference value :  3.30075e-05
 Reference value :  3.30089e-05
 Reference value :  3.30134e-05
 Reference value :  3.30177e-05
 Reference value :  3.30262e-05
 Reference value :  3.30433e-05
 Reference value :  3.30774e-05
 Reference value :  3.32823e-05
 Reference value :  3.35555e-05
 Reference value :  3.40000e-05
No. of Data Rows : 1254
ngspice-44 done
