
Note: Compatibility modes selected: hs a


Circuit: ** sch_path: /home/ece/cace/sar-adc-using-sky130-pdk/runs/run_2025-09-13_02-50-57/parameters/sndr/run_4/sndr_enob_fom.sch

option SCALE: Scale is set to 1e-06 for instance and model parameters
option SCALE: Scale is set to 1e-06 for instance and model parameters
option SCALE: Scale is set to 1e-06 for instance and model parameters
option SCALE: Scale is set to 1e-06 for instance and model parameters
Doing analysis at TEMP = 27.000000 and TNOM = 27.000000

Using KLU as Direct Linear Solver
Operating point simulation skipped by 'uic',
  now using transient initial conditions.
 Reference value :  1.00000e-12
 Reference value :  1.08400e-12
 Reference value :  1.73218e-12
 Reference value :  4.52054e-12
 Reference value :  1.38207e-11
 Reference value :  5.65475e-11
 Reference value :  1.04883e-10
 Reference value :  1.34181e-10
 Reference value :  4.07633e-10
 Reference value :  9.70774e-10
 Reference value :  1.93057e-09
 Reference value :  4.22465e-09
 Reference value :  5.99067e-09
 Reference value :  7.12852e-09
 Reference value :  9.18327e-09
 Reference value :  1.10480e-08
 Reference value :  1.53208e-08
 Reference value :  2.08102e-08
 Reference value :  2.90675e-08
 Reference value :  6.71530e-08
 Reference value :  2.50100e-07
 Reference value :  2.50170e-07
 Reference value :  2.50223e-07
 Reference value :  2.50308e-07
 Reference value :  2.50511e-07
 Reference value :  2.51215e-07
 Reference value :  2.52065e-07
 Reference value :  2.53380e-07
 Reference value :  2.53899e-07
 Reference value :  2.55102e-07
 Reference value :  2.56493e-07
 Reference value :  2.60632e-07
 Reference value :  2.79147e-07
 Reference value :  5.00000e-07
 Reference value :  5.00070e-07
 Reference value :  5.00156e-07
 Reference value :  5.00500e-07
 Reference value :  5.01286e-07
 Reference value :  5.02180e-07
 Reference value :  5.03934e-07
 Reference value :  5.07963e-07
 Reference value :  5.12028e-07
 Reference value :  5.15240e-07
 Reference value :  5.25693e-07
 Reference value :  7.50100e-07
 Reference value :  7.50200e-07
 Reference value :  7.50318e-07
 Reference value :  7.51387e-07
 Reference value :  7.53776e-07
 Reference value :  7.55799e-07
 Reference value :  7.58440e-07
 Reference value :  7.68447e-07
 Reference value :  9.54467e-07
 Reference value :  1.00003e-06
 Reference value :  1.00012e-06
 Reference value :  1.00034e-06
 Reference value :  1.00128e-06
 Reference value :  1.00329e-06
 Reference value :  1.00499e-06
 Reference value :  1.00609e-06
 Reference value :  1.00842e-06
 Reference value :  1.01172e-06
 Reference value :  1.01451e-06
 Reference value :  1.01747e-06
 Reference value :  1.02132e-06
 Reference value :  1.08211e-06
 Reference value :  1.25011e-06
 Reference value :  1.25021e-06
 Reference value :  1.25032e-06
 Reference value :  1.25095e-06
 Reference value :  1.25185e-06
 Reference value :  1.25376e-06
 Reference value :  1.25503e-06
 Reference value :  1.25918e-06
 Reference value :  1.28467e-06
 Reference value :  1.50000e-06
 Reference value :  1.50007e-06
 Reference value :  1.50012e-06
 Reference value :  1.50034e-06
 Reference value :  1.50129e-06
 Reference value :  1.50218e-06
 Reference value :  1.50395e-06
 Reference value :  1.50553e-06
 Reference value :  1.50734e-06
 Reference value :  1.50903e-06
 Reference value :  1.51242e-06
 Reference value :  1.54746e-06
 Reference value :  1.75011e-06
 Reference value :  1.75020e-06
 Reference value :  1.75026e-06
 Reference value :  1.75068e-06
 Reference value :  1.75138e-06
 Reference value :  1.75302e-06
 Reference value :  1.75440e-06
 Reference value :  1.75672e-06
 Reference value :  1.75844e-06
 Reference value :  1.76216e-06
 Reference value :  1.78805e-06
 Reference value :  2.00000e-06
 Reference value :  2.00007e-06
 Reference value :  2.00012e-06
 Reference value :  2.00034e-06
 Reference value :  2.00128e-06
 Reference value :  2.00219e-06
 Reference value :  2.00329e-06
 Reference value :  2.00441e-06
 Reference value :  2.00556e-06
 Reference value :  2.00670e-06
 Reference value :  2.00973e-06
 Reference value :  2.01173e-06
 Reference value :  2.01369e-06
 Reference value :  2.01547e-06
 Reference value :  2.01853e-06
 Reference value :  2.02129e-06
 Reference value :  2.04079e-06
 Reference value :  2.18117e-06
 Reference value :  2.25013e-06
 Reference value :  2.25022e-06
 Reference value :  2.25069e-06
 Reference value :  2.25138e-06
 Reference value :  2.25302e-06
 Reference value :  2.25437e-06
 Reference value :  2.25664e-06
 Reference value :  2.26541e-06
 Reference value :  2.34225e-06
 Reference value :  2.50003e-06
 Reference value :  2.50016e-06
 Reference value :  2.50083e-06
 Reference value :  2.50218e-06
 Reference value :  2.50395e-06
 Reference value :  2.50553e-06
 Reference value :  2.50734e-06
 Reference value :  2.50903e-06
 Reference value :  2.51241e-06
 Reference value :  2.54755e-06
 Reference value :  2.75011e-06
 Reference value :  2.75020e-06
 Reference value :  2.75032e-06
 Reference value :  2.75094e-06
 Reference value :  2.75185e-06
 Reference value :  2.75302e-06
 Reference value :  2.75439e-06
 Reference value :  2.75671e-06
 Reference value :  2.75843e-06
 Reference value :  2.76215e-06
 Reference value :  2.78764e-06
 Reference value :  3.00000e-06
 Reference value :  3.00007e-06
 Reference value :  3.00012e-06
 Reference value :  3.00034e-06
 Reference value :  3.00128e-06
 Reference value :  3.00219e-06
 Reference value :  3.00329e-06
 Reference value :  3.00441e-06
 Reference value :  3.00556e-06
 Reference value :  3.00670e-06
 Reference value :  3.00973e-06
 Reference value :  3.01174e-06
 Reference value :  3.01369e-06
 Reference value :  3.01546e-06
 Reference value :  3.01852e-06
 Reference value :  3.02659e-06
 Reference value :  3.08029e-06
 Reference value :  3.13391e-06
 Reference value :  3.20962e-06
 Reference value :  3.25011e-06
 Reference value :  3.25020e-06
 Reference value :  3.25026e-06
 Reference value :  3.25069e-06
 Reference value :  3.25138e-06
 Reference value :  3.25236e-06
 Reference value :  3.25375e-06
 Reference value :  3.25502e-06
 Reference value :  3.25760e-06
 Reference value :  3.26537e-06
 Reference value :  3.34116e-06
 Reference value :  3.50001e-06
 Reference value :  3.50010e-06
 Reference value :  3.50016e-06
 Reference value :  3.50034e-06
 Reference value :  3.50129e-06
 Reference value :  3.50218e-06
 Reference value :  3.50395e-06
 Reference value :  3.50553e-06
 Reference value :  3.50734e-06
 Reference value :  3.50903e-06
 Reference value :  3.51241e-06
 Reference value :  3.52891e-06
 Reference value :  3.75010e-06
 Reference value :  3.75017e-06
 Reference value :  3.75026e-06
 Reference value :  3.75068e-06
 Reference value :  3.75138e-06
 Reference value :  3.75235e-06
 Reference value :  3.75376e-06
 Reference value :  3.75505e-06
 Reference value :  3.75670e-06
 Reference value :  3.75843e-06
 Reference value :  3.76074e-06
 Reference value :  3.76832e-06
 Reference value :  3.80776e-06
 Reference value :  4.00000e-06
 Reference value :  4.00003e-06
 Reference value :  4.00010e-06
 Reference value :  4.00016e-06
 Reference value :  4.00050e-06
 Reference value :  4.00128e-06
 Reference value :  4.00219e-06
 Reference value :  4.00329e-06
 Reference value :  4.00441e-06
 Reference value :  4.00556e-06
 Reference value :  4.00756e-06
 Reference value :  4.01071e-06
 Reference value :  4.01174e-06
 Reference value :  4.01285e-06
 Reference value :  4.01368e-06
 Reference value :  4.01545e-06
 Reference value :  4.01745e-06
 Reference value :  4.01962e-06
 Reference value :  4.02304e-06
 Reference value :  4.04064e-06
 Reference value :  4.06964e-06
 Reference value :  4.08214e-06
 Reference value :  4.11717e-06
 Reference value :  4.17033e-06
 Reference value :  4.25010e-06
 Reference value :  4.25020e-06
 Reference value :  4.25026e-06
 Reference value :  4.25094e-06
 Reference value :  4.25185e-06
 Reference value :  4.25365e-06
 Reference value :  4.25498e-06
 Reference value :  4.25657e-06
 Reference value :  4.26142e-06
 Reference value :  4.28294e-06
 Reference value :  4.31401e-06
 Reference value :  4.35218e-06
 Reference value :  4.50001e-06
 Reference value :  4.50010e-06
 Reference value :  4.50016e-06
 Reference value :  4.50050e-06
 Reference value :  4.50129e-06
 Reference value :  4.50218e-06
 Reference value :  4.50396e-06
 Reference value :  4.50557e-06
 Reference value :  4.50738e-06
 Reference value :  4.50904e-06
 Reference value :  4.51120e-06
 Reference value :  4.51940e-06
 Reference value :  4.65231e-06
 Reference value :  4.75017e-06
 Reference value :  4.75026e-06
 Reference value :  4.75068e-06
 Reference value :  4.75138e-06
 Reference value :  4.75302e-06
 Reference value :  4.75439e-06
 Reference value :  4.75576e-06
 Reference value :  4.75757e-06
 Reference value :  4.75933e-06
 Reference value :  4.76831e-06
 Reference value :  4.84850e-06
 Reference value :  5.00003e-06
 Reference value :  5.00012e-06
 Reference value :  5.00050e-06
 Reference value :  5.00128e-06
 Reference value :  5.00219e-06
 Reference value :  5.00330e-06
 Reference value :  5.00442e-06
 Reference value :  5.00557e-06
 Reference value :  5.00609e-06
 Reference value :  5.00842e-06
 Reference value :  5.01068e-06
 Reference value :  5.01282e-06
 Reference value :  5.01448e-06
 Reference value :  5.01757e-06
 Reference value :  5.02178e-06
 Reference value :  5.02998e-06
 Reference value :  5.03644e-06
 Reference value :  5.04876e-06
 Reference value :  5.08303e-06
 Reference value :  5.21834e-06
 Reference value :  5.25017e-06
 Reference value :  5.25032e-06
 Reference value :  5.25094e-06
 Reference value :  5.25185e-06
 Reference value :  5.25302e-06
 Reference value :  5.25438e-06
 Reference value :  5.25665e-06
 Reference value :  5.26544e-06
 Reference value :  5.34131e-06
 Reference value :  5.50003e-06
 Reference value :  5.50012e-06
 Reference value :  5.50034e-06
 Reference value :  5.50128e-06
 Reference value :  5.50219e-06
 Reference value :  5.50323e-06
 Reference value :  5.50442e-06
 Reference value :  5.50616e-06
 Reference value :  5.50818e-06
 Reference value :  5.51158e-06
 Reference value :  5.52858e-06
 Reference value :  5.75011e-06
 Reference value :  5.75020e-06
 Reference value :  5.75032e-06
 Reference value :  5.75094e-06
 Reference value :  5.75185e-06
 Reference value :  5.75377e-06
 Reference value :  5.75505e-06
 Reference value :  5.75758e-06
 Reference value :  5.76549e-06
 Reference value :  5.84044e-06
 Reference value :  6.00003e-06
 Reference value :  6.00011e-06
 Reference value :  6.00022e-06
 Reference value :  6.00083e-06
 Reference value :  6.00176e-06
 Reference value :  6.00268e-06
 Reference value :  6.00329e-06
 Reference value :  6.00440e-06
 Reference value :  6.00557e-06
 Reference value :  6.00671e-06
 Reference value :  6.00844e-06
 Reference value :  6.01143e-06
 Reference value :  6.01280e-06
 Reference value :  6.01492e-06
 Reference value :  6.01706e-06
 Reference value :  6.02105e-06
 Reference value :  6.04087e-06
 Reference value :  6.12349e-06
 Reference value :  6.25013e-06
 Reference value :  6.25021e-06
 Reference value :  6.25032e-06
 Reference value :  6.25094e-06
 Reference value :  6.25185e-06
 Reference value :  6.25302e-06
 Reference value :  6.25439e-06
 Reference value :  6.25571e-06
 Reference value :  6.25762e-06
 Reference value :  6.26552e-06
 Reference value :  6.30521e-06
 Reference value :  6.50000e-06
 Reference value :  6.50007e-06
 Reference value :  6.50012e-06
 Reference value :  6.50022e-06
 Reference value :  6.50050e-06
 Reference value :  6.50128e-06
 Reference value :  6.50219e-06
 Reference value :  6.50323e-06
 Reference value :  6.50443e-06
 Reference value :  6.50617e-06
 Reference value :  6.50819e-06
 Reference value :  6.51037e-06
 Reference value :  6.51289e-06
 Reference value :  6.52866e-06
 Reference value :  6.64411e-06
 Reference value :  6.75013e-06
 Reference value :  6.75021e-06
 Reference value :  6.75032e-06
 Reference value :  6.75068e-06
 Reference value :  6.75138e-06
 Reference value :  6.75235e-06
 Reference value :  6.75377e-06
 Reference value :  6.75439e-06
 Reference value :  6.75576e-06
 Reference value :  6.75758e-06
 Reference value :  6.76141e-06
 Reference value :  6.78391e-06
 Reference value :  6.83995e-06
 Reference value :  7.00001e-06
 Reference value :  7.00007e-06
 Reference value :  7.00012e-06
 Reference value :  7.00022e-06
 Reference value :  7.00083e-06
 Reference value :  7.00128e-06
 Reference value :  7.00219e-06
 Reference value :  7.00391e-06
 Reference value :  7.00498e-06
 Reference value :  7.00609e-06
 Reference value :  7.00999e-06
 Reference value :  7.01280e-06
 Reference value :  7.01492e-06
 Reference value :  7.01706e-06
 Reference value :  7.01937e-06
 Reference value :  7.03159e-06
 Reference value :  7.11585e-06
 Reference value :  7.25011e-06
 Reference value :  7.25020e-06
 Reference value :  7.25026e-06
 Reference value :  7.25068e-06
 Reference value :  7.25138e-06
 Reference value :  7.25302e-06
 Reference value :  7.25439e-06
 Reference value :  7.25571e-06
 Reference value :  7.25762e-06
 Reference value :  7.26550e-06
 Reference value :  7.28406e-06
 Reference value :  7.50000e-06
 Reference value :  7.50007e-06
 Reference value :  7.50012e-06
 Reference value :  7.50034e-06
 Reference value :  7.50128e-06
 Reference value :  7.50219e-06
 Reference value :  7.50323e-06
 Reference value :  7.50443e-06
 Reference value :  7.50617e-06
 Reference value :  7.50819e-06
 Reference value :  7.51158e-06
 Reference value :  7.54515e-06
 Reference value :  7.75011e-06
 Reference value :  7.75021e-06
 Reference value :  7.75044e-06
 Reference value :  7.75138e-06
 Reference value :  7.75302e-06
 Reference value :  7.75439e-06
 Reference value :  7.75670e-06
 Reference value :  7.76545e-06
 Reference value :  7.83955e-06
 Reference value :  8.00003e-06
 Reference value :  8.00011e-06
 Reference value :  8.00022e-06
 Reference value :  8.00083e-06
 Reference value :  8.00176e-06
 Reference value :  8.00268e-06
 Reference value :  8.00391e-06
 Reference value :  8.00498e-06
 Reference value :  8.00557e-06
 Reference value :  8.00671e-06
 Reference value :  8.00844e-06
 Reference value :  8.01027e-06
 Reference value :  8.02669e-06
 Reference value :  8.14929e-06
 Reference value :  8.25013e-06
 Reference value :  8.25021e-06
 Reference value :  8.25045e-06
 Reference value :  8.25139e-06
 Reference value :  8.25303e-06
 Reference value :  8.25475e-06
 Reference value :  8.25789e-06
 Reference value :  8.26492e-06
 Reference value :  8.29642e-06
 Reference value :  8.50000e-06
 Reference value :  8.50007e-06
 Reference value :  8.50012e-06
 Reference value :  8.50060e-06
 Reference value :  8.50154e-06
 Reference value :  8.50262e-06
 Reference value :  8.50382e-06
 Reference value :  8.50600e-06
 Reference value :  8.50885e-06
 Reference value :  8.52429e-06
 Reference value :  8.52843e-06
 Reference value :  8.53146e-06
 Reference value :  8.53675e-06
 Reference value :  8.53993e-06
 Reference value :  8.54355e-06
 Reference value :  8.54956e-06
 Reference value :  8.55270e-06
 Reference value :  8.55949e-06
 Reference value :  8.56220e-06
 Reference value :  8.56709e-06
 Reference value :  8.57454e-06
 Reference value :  8.58452e-06
 Reference value :  8.62451e-06
 Reference value :  8.75010e-06
 Reference value :  8.75017e-06
 Reference value :  8.75022e-06
 Reference value :  8.75045e-06
 Reference value :  8.75138e-06
 Reference value :  8.75236e-06
 Reference value :  8.75302e-06
 Reference value :  8.75439e-06
 Reference value :  8.75577e-06
 Reference value :  8.75940e-06
 Reference value :  8.78464e-06
 Reference value :  8.90096e-06
 Reference value :  9.00003e-06
 Reference value :  9.00011e-06
 Reference value :  9.00022e-06
 Reference value :  9.00083e-06
 Reference value :  9.00176e-06
 Reference value :  9.00218e-06
 Reference value :  9.00393e-06
 Reference value :  9.00554e-06
 Reference value :  9.00783e-06
 Reference value :  9.01044e-06
 Reference value :  9.01354e-06
 Reference value :  9.01967e-06
 Reference value :  9.04070e-06
 Reference value :  9.22580e-06
 Reference value :  9.25017e-06
 Reference value :  9.25026e-06
 Reference value :  9.25068e-06
 Reference value :  9.25138e-06
 Reference value :  9.25302e-06
 Reference value :  9.25439e-06
 Reference value :  9.25670e-06
 Reference value :  9.25933e-06
 Reference value :  9.27519e-06
 Reference value :  9.50001e-06
 Reference value :  9.50012e-06
 Reference value :  9.50128e-06
 Reference value :  9.50268e-06
 Reference value :  9.50441e-06
 Reference value :  9.50556e-06
 Reference value :  9.50755e-06
 Reference value :  9.51070e-06
 Reference value :  9.51284e-06
 Reference value :  9.51548e-06
 Reference value :  9.51856e-06
 Reference value :  9.52317e-06
 Reference value :  9.55804e-06
 Reference value :  9.75010e-06
 Reference value :  9.75013e-06
 Reference value :  9.75020e-06
 Reference value :  9.75026e-06
 Reference value :  9.75068e-06
 Reference value :  9.75138e-06
 Reference value :  9.75302e-06
 Reference value :  9.75436e-06
 Reference value :  9.75757e-06
 Reference value :  9.77228e-06
 Reference value :  9.90440e-06
 Reference value :  1.00001e-05
 Reference value :  1.00002e-05
 Reference value :  1.00005e-05
 Reference value :  1.00013e-05
 Reference value :  1.00022e-05
 Reference value :  1.00039e-05
 Reference value :  1.00055e-05
 Reference value :  1.00073e-05
 Reference value :  1.00090e-05
 Reference value :  1.00112e-05
 Reference value :  1.00148e-05
 Reference value :  1.00476e-05
 Reference value :  1.01597e-05
 Reference value :  1.02501e-05
 Reference value :  1.02502e-05
 Reference value :  1.02503e-05
 Reference value :  1.02509e-05
 Reference value :  1.02518e-05
 Reference value :  1.02538e-05
 Reference value :  1.02550e-05
 Reference value :  1.02576e-05
 Reference value :  1.02593e-05
 Reference value :  1.02683e-05
 Reference value :  1.03481e-05
 Reference value :  1.05000e-05
 Reference value :  1.05001e-05
 Reference value :  1.05005e-05
 Reference value :  1.05013e-05
 Reference value :  1.05022e-05
 Reference value :  1.05033e-05
 Reference value :  1.05050e-05
 Reference value :  1.05061e-05
 Reference value :  1.05097e-05
 Reference value :  1.05117e-05
 Reference value :  1.05137e-05
 Reference value :  1.05165e-05
 Reference value :  1.05197e-05
 Reference value :  1.05323e-05
 Reference value :  1.06860e-05
 Reference value :  1.07501e-05
 Reference value :  1.07503e-05
 Reference value :  1.07509e-05
 Reference value :  1.07524e-05
 Reference value :  1.07544e-05
 Reference value :  1.07566e-05
 Reference value :  1.07653e-05
 Reference value :  1.08391e-05
 Reference value :  1.10000e-05
 Reference value :  1.10001e-05
 Reference value :  1.10005e-05
 Reference value :  1.10013e-05
 Reference value :  1.10022e-05
 Reference value :  1.10039e-05
 Reference value :  1.10055e-05
 Reference value :  1.10073e-05
 Reference value :  1.10090e-05
 Reference value :  1.10149e-05
 Reference value :  1.11600e-05
 Reference value :  1.12502e-05
 Reference value :  1.12503e-05
 Reference value :  1.12514e-05
 Reference value :  1.12530e-05
 Reference value :  1.12544e-05
 Reference value :  1.12567e-05
 Reference value :  1.12584e-05
 Reference value :  1.12621e-05
 Reference value :  1.12874e-05
 Reference value :  1.15000e-05
 Reference value :  1.15001e-05
 Reference value :  1.15001e-05
 Reference value :  1.15003e-05
 Reference value :  1.15013e-05
 Reference value :  1.15022e-05
 Reference value :  1.15033e-05
 Reference value :  1.15044e-05
 Reference value :  1.15056e-05
 Reference value :  1.15061e-05
 Reference value :  1.15076e-05
 Reference value :  1.15097e-05
 Reference value :  1.15117e-05
 Reference value :  1.15137e-05
 Reference value :  1.15155e-05
 Reference value :  1.15185e-05
 Reference value :  1.15231e-05
 Reference value :  1.15575e-05
 Reference value :  1.16193e-05
 Reference value :  1.16817e-05
 Reference value :  1.17501e-05
 Reference value :  1.17502e-05
 Reference value :  1.17502e-05
 Reference value :  1.17507e-05
 Reference value :  1.17514e-05
 Reference value :  1.17530e-05
 Reference value :  1.17544e-05
 Reference value :  1.17576e-05
 Reference value :  1.17723e-05
 Reference value :  1.20000e-05
 Reference value :  1.20001e-05
 Reference value :  1.20002e-05
 Reference value :  1.20013e-05
 Reference value :  1.20026e-05
 Reference value :  1.20047e-05
 Reference value :  1.20073e-05
 Reference value :  1.20100e-05
 Reference value :  1.20477e-05
 Reference value :  1.22501e-05
 Reference value :  1.22502e-05
 Reference value :  1.22507e-05
 Reference value :  1.22518e-05
 Reference value :  1.22538e-05
 Reference value :  1.22558e-05
 Reference value :  1.22584e-05
 Reference value :  1.22649e-05
 Reference value :  1.23481e-05
 Reference value :  1.25001e-05
 Reference value :  1.25002e-05
 Reference value :  1.25013e-05
 Reference value :  1.25027e-05
 Reference value :  1.25044e-05
 Reference value :  1.25056e-05
 Reference value :  1.25076e-05
 Reference value :  1.25107e-05
 Reference value :  1.25137e-05
 Reference value :  1.25164e-05
 Reference value :  1.25197e-05
 Reference value :  1.25268e-05
 Reference value :  1.25507e-05
 Reference value :  1.25686e-05
 Reference value :  1.25808e-05
 Reference value :  1.26003e-05
 Reference value :  1.26945e-05
 Reference value :  1.27501e-05
 Reference value :  1.27502e-05
 Reference value :  1.27504e-05
 Reference value :  1.27514e-05
 Reference value :  1.27530e-05
 Reference value :  1.27551e-05
 Reference value :  1.27619e-05
 Reference value :  1.28013e-05
 Reference value :  1.29783e-05
 Reference value :  1.30001e-05
 Reference value :  1.30003e-05
 Reference value :  1.30013e-05
 Reference value :  1.30022e-05
 Reference value :  1.30039e-05
 Reference value :  1.30055e-05
 Reference value :  1.30073e-05
 Reference value :  1.30090e-05
 Reference value :  1.30112e-05
 Reference value :  1.30195e-05
 Reference value :  1.31601e-05
 Reference value :  1.32502e-05
 Reference value :  1.32503e-05
 Reference value :  1.32514e-05
 Reference value :  1.32530e-05
 Reference value :  1.32544e-05
 Reference value :  1.32567e-05
 Reference value :  1.32584e-05
 Reference value :  1.32621e-05
 Reference value :  1.32873e-05
 Reference value :  1.34240e-05
 Reference value :  1.35000e-05
 Reference value :  1.35001e-05
 Reference value :  1.35001e-05
 Reference value :  1.35002e-05
 Reference value :  1.35005e-05
 Reference value :  1.35013e-05
 Reference value :  1.35022e-05
 Reference value :  1.35033e-05
 Reference value :  1.35044e-05
 Reference value :  1.35056e-05
 Reference value :  1.35067e-05
 Reference value :  1.35084e-05
 Reference value :  1.35107e-05
 Reference value :  1.35117e-05
 Reference value :  1.35137e-05
 Reference value :  1.35165e-05
 Reference value :  1.35188e-05
 Reference value :  1.35239e-05
 Reference value :  1.35309e-05
 Reference value :  1.35335e-05
 Reference value :  1.35404e-05
 Reference value :  1.35581e-05
 Reference value :  1.36182e-05
 Reference value :  1.37501e-05
 Reference value :  1.37501e-05
 Reference value :  1.37502e-05
 Reference value :  1.37503e-05
 Reference value :  1.37514e-05
 Reference value :  1.37530e-05
 Reference value :  1.37544e-05
 Reference value :  1.37567e-05
 Reference value :  1.37614e-05
 Reference value :  1.37839e-05
 Reference value :  1.39068e-05
 Reference value :  1.40000e-05
 Reference value :  1.40001e-05
 Reference value :  1.40001e-05
 Reference value :  1.40002e-05
 Reference value :  1.40008e-05
 Reference value :  1.40018e-05
 Reference value :  1.40027e-05
 Reference value :  1.40038e-05
 Reference value :  1.40051e-05
 Reference value :  1.40072e-05
 Reference value :  1.40093e-05
 Reference value :  1.40116e-05
 Reference value :  1.40204e-05
 Reference value :  1.41426e-05
 Reference value :  1.42501e-05
 Reference value :  1.42502e-05
 Reference value :  1.42504e-05
 Reference value :  1.42514e-05
 Reference value :  1.42524e-05
 Reference value :  1.42538e-05
 Reference value :  1.42551e-05
 Reference value :  1.42567e-05
 Reference value :  1.42592e-05
 Reference value :  1.42725e-05
 Reference value :  1.43396e-05
 Reference value :  1.45000e-05
 Reference value :  1.45001e-05
 Reference value :  1.45002e-05
 Reference value :  1.45005e-05
 Reference value :  1.45013e-05
 Reference value :  1.45022e-05
 Reference value :  1.45033e-05
 Reference value :  1.45044e-05
 Reference value :  1.45056e-05
 Reference value :  1.45061e-05
 Reference value :  1.45076e-05
 Reference value :  1.45100e-05
 Reference value :  1.45128e-05
 Reference value :  1.45149e-05
 Reference value :  1.45171e-05
 Reference value :  1.45194e-05
 Reference value :  1.45261e-05
 Reference value :  1.45509e-05
 Reference value :  1.46955e-05
 Reference value :  1.47501e-05
 Reference value :  1.47502e-05
 Reference value :  1.47504e-05
 Reference value :  1.47509e-05
 Reference value :  1.47514e-05
 Reference value :  1.47524e-05
 Reference value :  1.47538e-05
 Reference value :  1.47550e-05
 Reference value :  1.47567e-05
 Reference value :  1.47655e-05
 Reference value :  1.48402e-05
 Reference value :  1.50000e-05
 Reference value :  1.50001e-05
 Reference value :  1.50002e-05
 Reference value :  1.50005e-05
 Reference value :  1.50013e-05
 Reference value :  1.50022e-05
 Reference value :  1.50032e-05
 Reference value :  1.50044e-05
 Reference value :  1.50062e-05
 Reference value :  1.50082e-05
 Reference value :  1.50116e-05
 Reference value :  1.50452e-05
 Reference value :  1.52501e-05
 Reference value :  1.52502e-05
 Reference value :  1.52504e-05
 Reference value :  1.52514e-05
 Reference value :  1.52530e-05
 Reference value :  1.52544e-05
 Reference value :  1.52567e-05
 Reference value :  1.52655e-05
 Reference value :  1.53396e-05
 Reference value :  1.55015e-05
 Reference value :  1.55045e-05
 Reference value :  1.55061e-05
 Reference value :  1.55092e-05
 Reference value :  1.55106e-05
 Reference value :  1.55120e-05
 Reference value :  1.55145e-05
 Reference value :  1.55179e-05
 Reference value :  1.55228e-05
 Reference value :  1.55470e-05
 Reference value :  1.57501e-05
 Reference value :  1.57502e-05
 Reference value :  1.57502e-05
 Reference value :  1.57504e-05
 Reference value :  1.57514e-05
 Reference value :  1.57530e-05
 Reference value :  1.57544e-05
 Reference value :  1.57567e-05
 Reference value :  1.57615e-05
 Reference value :  1.58049e-05
 Reference value :  1.60000e-05
 Reference value :  1.60001e-05
 Reference value :  1.60002e-05
 Reference value :  1.60005e-05
 Reference value :  1.60013e-05
 Reference value :  1.60022e-05
 Reference value :  1.60032e-05
 Reference value :  1.60044e-05
 Reference value :  1.60062e-05
 Reference value :  1.60082e-05
 Reference value :  1.60116e-05
 Reference value :  1.60286e-05
 Reference value :  1.62501e-05
 Reference value :  1.62502e-05
 Reference value :  1.62503e-05
 Reference value :  1.62509e-05
 Reference value :  1.62518e-05
 Reference value :  1.62538e-05
 Reference value :  1.62550e-05
 Reference value :  1.62576e-05
 Reference value :  1.62725e-05
 Reference value :  1.64050e-05
 Reference value :  1.65001e-05
 Reference value :  1.65002e-05
 Reference value :  1.65008e-05
 Reference value :  1.65018e-05
 Reference value :  1.65033e-05
 Reference value :  1.65044e-05
 Reference value :  1.65056e-05
 Reference value :  1.65076e-05
 Reference value :  1.65103e-05
 Reference value :  1.65267e-05
 Reference value :  1.67501e-05
 Reference value :  1.67502e-05
 Reference value :  1.67502e-05
 Reference value :  1.67504e-05
 Reference value :  1.67510e-05
 Reference value :  1.67519e-05
 Reference value :  1.67539e-05
 Reference value :  1.67556e-05
 Reference value :  1.67592e-05
 Reference value :  1.67712e-05
 Reference value :  1.68256e-05
 Reference value :  1.70000e-05
 Reference value :  1.70001e-05
 Reference value :  1.70001e-05
 Reference value :  1.70003e-05
 Reference value :  1.70009e-05
 Reference value :  1.70026e-05
 Reference value :  1.70038e-05
 Reference value :  1.70053e-05
 Reference value :  1.70059e-05
 Reference value :  1.70076e-05
 Reference value :  1.70136e-05
 Reference value :  1.70195e-05
 Reference value :  1.70237e-05
 Reference value :  1.70263e-05
 Reference value :  1.70305e-05
 Reference value :  1.70337e-05
 Reference value :  1.70361e-05
 Reference value :  1.70383e-05
 Reference value :  1.70412e-05
 Reference value :  1.70501e-05
 Reference value :  1.70610e-05
 Reference value :  1.70666e-05
 Reference value :  1.70733e-05
 Reference value :  1.70896e-05
 Reference value :  1.71087e-05
 Reference value :  1.72410e-05
 Reference value :  1.72501e-05
 Reference value :  1.72502e-05
 Reference value :  1.72507e-05
 Reference value :  1.72519e-05
 Reference value :  1.72537e-05
 Reference value :  1.72558e-05
 Reference value :  1.72618e-05
 Reference value :  1.73045e-05
 Reference value :  1.75000e-05
 Reference value :  1.75001e-05
 Reference value :  1.75001e-05
 Reference value :  1.75003e-05
 Reference value :  1.75008e-05
 Reference value :  1.75013e-05
 Reference value :  1.75022e-05
 Reference value :  1.75033e-05
 Reference value :  1.75039e-05
 Reference value :  1.75047e-05
 Reference value :  1.75066e-05
 Reference value :  1.75078e-05
 Reference value :  1.75104e-05
 Reference value :  1.75136e-05
 Reference value :  1.75173e-05
 Reference value :  1.75217e-05
 Reference value :  1.75401e-05
 Reference value :  1.77228e-05
 Reference value :  1.77501e-05
 Reference value :  1.77502e-05
 Reference value :  1.77503e-05
 Reference value :  1.77509e-05
 Reference value :  1.77518e-05
 Reference value :  1.77530e-05
 Reference value :  1.77538e-05
 Reference value :  1.77551e-05
 Reference value :  1.77567e-05
 Reference value :  1.77585e-05
 Reference value :  1.77608e-05
 Reference value :  1.77686e-05
 Reference value :  1.77853e-05
 Reference value :  1.78968e-05
 Reference value :  1.80019e-05
 Reference value :  1.80057e-05
 Reference value :  1.80076e-05
 Reference value :  1.80113e-05
 Reference value :  1.80128e-05
 Reference value :  1.80141e-05
 Reference value :  1.80165e-05
 Reference value :  1.80176e-05
 Reference value :  1.80221e-05
 Reference value :  1.80443e-05
 Reference value :  1.82355e-05
 Reference value :  1.82502e-05
 Reference value :  1.82502e-05
 Reference value :  1.82507e-05
 Reference value :  1.82519e-05
 Reference value :  1.82536e-05
 Reference value :  1.82547e-05
 Reference value :  1.82570e-05
 Reference value :  1.82683e-05
 Reference value :  1.83904e-05
 Reference value :  1.85000e-05
 Reference value :  1.85001e-05
 Reference value :  1.85002e-05
 Reference value :  1.85003e-05
 Reference value :  1.85008e-05
 Reference value :  1.85013e-05
 Reference value :  1.85022e-05
 Reference value :  1.85033e-05
 Reference value :  1.85039e-05
 Reference value :  1.85055e-05
 Reference value :  1.85074e-05
 Reference value :  1.85090e-05
 Reference value :  1.85124e-05
 Reference value :  1.85472e-05
 Reference value :  1.87501e-05
 Reference value :  1.87502e-05
 Reference value :  1.87503e-05
 Reference value :  1.87507e-05
 Reference value :  1.87514e-05
 Reference value :  1.87530e-05
 Reference value :  1.87544e-05
 Reference value :  1.87567e-05
 Reference value :  1.87584e-05
 Reference value :  1.87621e-05
 Reference value :  1.87752e-05
 Reference value :  1.89252e-05
 Reference value :  1.90000e-05
 Reference value :  1.90001e-05
 Reference value :  1.90002e-05
 Reference value :  1.90005e-05
 Reference value :  1.90013e-05
 Reference value :  1.90022e-05
 Reference value :  1.90033e-05
 Reference value :  1.90044e-05
 Reference value :  1.90056e-05
 Reference value :  1.90061e-05
 Reference value :  1.90076e-05
 Reference value :  1.90097e-05
 Reference value :  1.90107e-05
 Reference value :  1.90128e-05
 Reference value :  1.90137e-05
 Reference value :  1.90155e-05
 Reference value :  1.90175e-05
 Reference value :  1.90197e-05
 Reference value :  1.90231e-05
 Reference value :  1.90414e-05
 Reference value :  1.91246e-05
 Reference value :  1.92501e-05
 Reference value :  1.92501e-05
 Reference value :  1.92502e-05
 Reference value :  1.92503e-05
 Reference value :  1.92507e-05
 Reference value :  1.92514e-05
 Reference value :  1.92524e-05
 Reference value :  1.92538e-05
 Reference value :  1.92550e-05
 Reference value :  1.92566e-05
 Reference value :  1.92614e-05
 Reference value :  1.93042e-05
 Reference value :  1.95018e-05
 Reference value :  1.95053e-05
 Reference value :  1.95071e-05
 Reference value :  1.95103e-05
 Reference value :  1.95134e-05
 Reference value :  1.95284e-05
 Reference value :  1.96328e-05
 Reference value :  1.97501e-05
 Reference value :  1.97502e-05
 Reference value :  1.97503e-05
 Reference value :  1.97507e-05
 Reference value :  1.97514e-05
 Reference value :  1.97524e-05
 Reference value :  1.97537e-05
 Reference value :  1.97548e-05
 Reference value :  1.97563e-05
 Reference value :  1.97581e-05
 Reference value :  1.97620e-05
 Reference value :  1.97818e-05
 Reference value :  1.99359e-05
 Reference value :  2.00000e-05
 Reference value :  2.00001e-05
 Reference value :  2.00002e-05
 Reference value :  2.00008e-05
 Reference value :  2.00018e-05
 Reference value :  2.00022e-05
 Reference value :  2.00033e-05
 Reference value :  2.00044e-05
 Reference value :  2.00056e-05
 Reference value :  2.00061e-05
 Reference value :  2.00076e-05
 Reference value :  2.00097e-05
 Reference value :  2.00107e-05
 Reference value :  2.00129e-05
 Reference value :  2.00155e-05
 Reference value :  2.00185e-05
 Reference value :  2.00322e-05
 Reference value :  2.01009e-05
 Reference value :  2.01358e-05
 Reference value :  2.02108e-05
 Reference value :  2.02501e-05
 Reference value :  2.02502e-05
 Reference value :  2.02503e-05
 Reference value :  2.02507e-05
 Reference value :  2.02518e-05
 Reference value :  2.02530e-05
 Reference value :  2.02544e-05
 Reference value :  2.02566e-05
 Reference value :  2.02614e-05
 Reference value :  2.02836e-05
 Reference value :  2.04043e-05
 Reference value :  2.05018e-05
 Reference value :  2.05072e-05
 Reference value :  2.05104e-05
 Reference value :  2.05137e-05
 Reference value :  2.05296e-05
 Reference value :  2.07501e-05
 Reference value :  2.07502e-05
 Reference value :  2.07503e-05
 Reference value :  2.07507e-05
 Reference value :  2.07514e-05
 Reference value :  2.07524e-05
 Reference value :  2.07542e-05
 Reference value :  2.07562e-05
 Reference value :  2.07580e-05
 Reference value :  2.07619e-05
 Reference value :  2.07994e-05
 Reference value :  2.10000e-05
 Reference value :  2.10001e-05
 Reference value :  2.10003e-05
 Reference value :  2.10013e-05
 Reference value :  2.10022e-05
 Reference value :  2.10033e-05
 Reference value :  2.10044e-05
 Reference value :  2.10056e-05
 Reference value :  2.10076e-05
 Reference value :  2.10107e-05
 Reference value :  2.10137e-05
 Reference value :  2.10175e-05
 Reference value :  2.10213e-05
 Reference value :  2.10412e-05
 Reference value :  2.10596e-05
 Reference value :  2.10684e-05
 Reference value :  2.10805e-05
 Reference value :  2.10923e-05
 Reference value :  2.11412e-05
 Reference value :  2.12490e-05
 Reference value :  2.12501e-05
 Reference value :  2.12502e-05
 Reference value :  2.12502e-05
 Reference value :  2.12504e-05
 Reference value :  2.12509e-05
 Reference value :  2.12518e-05
 Reference value :  2.12530e-05
 Reference value :  2.12544e-05
 Reference value :  2.12558e-05
 Reference value :  2.12594e-05
 Reference value :  2.12729e-05
 Reference value :  2.13045e-05
 Reference value :  2.13443e-05
 Reference value :  2.14452e-05
 Reference value :  2.15000e-05
 Reference value :  2.15001e-05
 Reference value :  2.15002e-05
 Reference value :  2.15005e-05
 Reference value :  2.15013e-05
 Reference value :  2.15022e-05
 Reference value :  2.15033e-05
 Reference value :  2.15047e-05
 Reference value :  2.15066e-05
 Reference value :  2.15073e-05
 Reference value :  2.15090e-05
 Reference value :  2.15112e-05
 Reference value :  2.15195e-05
 Reference value :  2.15849e-05
 Reference value :  2.17501e-05
 Reference value :  2.17502e-05
 Reference value :  2.17502e-05
 Reference value :  2.17504e-05
 Reference value :  2.17509e-05
 Reference value :  2.17518e-05
 Reference value :  2.17530e-05
 Reference value :  2.17544e-05
 Reference value :  2.17558e-05
 Reference value :  2.17576e-05
 Reference value :  2.17593e-05
 Reference value :  2.17648e-05
 Reference value :  2.18075e-05
 Reference value :  2.20013e-05
 Reference value :  2.20051e-05
 Reference value :  2.20073e-05
 Reference value :  2.20103e-05
 Reference value :  2.20122e-05
 Reference value :  2.20140e-05
 Reference value :  2.20156e-05
 Reference value :  2.20176e-05
 Reference value :  2.20214e-05
 Reference value :  2.20293e-05
 Reference value :  2.20356e-05
 Reference value :  2.20483e-05
 Reference value :  2.20848e-05
 Reference value :  2.21326e-05
 Reference value :  2.22410e-05
 Reference value :  2.22502e-05
 Reference value :  2.22502e-05
 Reference value :  2.22504e-05
 Reference value :  2.22514e-05
 Reference value :  2.22530e-05
 Reference value :  2.22544e-05
 Reference value :  2.22557e-05
 Reference value :  2.22591e-05
 Reference value :  2.23041e-05
 Reference value :  2.25000e-05
 Reference value :  2.25001e-05
 Reference value :  2.25003e-05
 Reference value :  2.25013e-05
 Reference value :  2.25027e-05
 Reference value :  2.25044e-05
 Reference value :  2.25072e-05
 Reference value :  2.25093e-05
 Reference value :  2.25116e-05
 Reference value :  2.25204e-05
 Reference value :  2.26429e-05
 Reference value :  2.27501e-05
 Reference value :  2.27502e-05
 Reference value :  2.27503e-05
 Reference value :  2.27514e-05
 Reference value :  2.27530e-05
 Reference value :  2.27544e-05
 Reference value :  2.27567e-05
 Reference value :  2.27655e-05
 Reference value :  2.29051e-05
 Reference value :  2.30015e-05
 Reference value :  2.30045e-05
 Reference value :  2.30061e-05
 Reference value :  2.30092e-05
 Reference value :  2.30106e-05
 Reference value :  2.30120e-05
 Reference value :  2.30145e-05
 Reference value :  2.30167e-05
 Reference value :  2.30192e-05
 Reference value :  2.30250e-05
 Reference value :  2.30444e-05
 Reference value :  2.31542e-05
 Reference value :  2.32501e-05
 Reference value :  2.32502e-05
 Reference value :  2.32504e-05
 Reference value :  2.32514e-05
 Reference value :  2.32524e-05
 Reference value :  2.32538e-05
 Reference value :  2.32550e-05
 Reference value :  2.32567e-05
 Reference value :  2.32615e-05
 Reference value :  2.32840e-05
 Reference value :  2.34059e-05
 Reference value :  2.35000e-05
 Reference value :  2.35001e-05
 Reference value :  2.35002e-05
 Reference value :  2.35005e-05
 Reference value :  2.35013e-05
 Reference value :  2.35022e-05
 Reference value :  2.35032e-05
 Reference value :  2.35044e-05
 Reference value :  2.35062e-05
 Reference value :  2.35082e-05
 Reference value :  2.35104e-05
 Reference value :  2.35129e-05
 Reference value :  2.35285e-05
 Reference value :  2.37501e-05
 Reference value :  2.37502e-05
 Reference value :  2.37502e-05
 Reference value :  2.37504e-05
 Reference value :  2.37509e-05
 Reference value :  2.37518e-05
 Reference value :  2.37530e-05
 Reference value :  2.37544e-05
 Reference value :  2.37558e-05
 Reference value :  2.37576e-05
 Reference value :  2.37655e-05
 Reference value :  2.38048e-05
 Reference value :  2.40000e-05
 Reference value :  2.40000e-05
 Reference value :  2.40001e-05
 Reference value :  2.40005e-05
 Reference value :  2.40018e-05
 Reference value :  2.40033e-05
 Reference value :  2.40044e-05
 Reference value :  2.40056e-05
 Reference value :  2.40067e-05
 Reference value :  2.40100e-05
 Reference value :  2.40128e-05
 Reference value :  2.40160e-05
 Reference value :  2.40182e-05
 Reference value :  2.40227e-05
 Reference value :  2.40522e-05
 Reference value :  2.42501e-05
 Reference value :  2.42502e-05
 Reference value :  2.42503e-05
 Reference value :  2.42514e-05
 Reference value :  2.42538e-05
 Reference value :  2.42557e-05
 Reference value :  2.42655e-05
 Reference value :  2.44062e-05
 Reference value :  2.45001e-05
 Reference value :  2.45002e-05
 Reference value :  2.45008e-05
 Reference value :  2.45022e-05
 Reference value :  2.45038e-05
 Reference value :  2.45051e-05
 Reference value :  2.45072e-05
 Reference value :  2.45093e-05
 Reference value :  2.45116e-05
 Reference value :  2.45204e-05
 Reference value :  2.45784e-05
 Reference value :  2.47501e-05
 Reference value :  2.47502e-05
 Reference value :  2.47503e-05
 Reference value :  2.47507e-05
 Reference value :  2.47514e-05
 Reference value :  2.47530e-05
 Reference value :  2.47544e-05
 Reference value :  2.47558e-05
 Reference value :  2.47592e-05
 Reference value :  2.47838e-05
 Reference value :  2.50000e-05
 Reference value :  2.50001e-05
 Reference value :  2.50001e-05
 Reference value :  2.50003e-05
 Reference value :  2.50008e-05
 Reference value :  2.50013e-05
 Reference value :  2.50022e-05
 Reference value :  2.50033e-05
 Reference value :  2.50044e-05
 Reference value :  2.50056e-05
 Reference value :  2.50067e-05
 Reference value :  2.50084e-05
 Reference value :  2.50103e-05
 Reference value :  2.50267e-05
 Reference value :  2.52501e-05
 Reference value :  2.52502e-05
 Reference value :  2.52502e-05
 Reference value :  2.52504e-05
 Reference value :  2.52514e-05
 Reference value :  2.52530e-05
 Reference value :  2.52548e-05
 Reference value :  2.52579e-05
 Reference value :  2.52649e-05
 Reference value :  2.53256e-05
 Reference value :  2.55001e-05
 Reference value :  2.55001e-05
 Reference value :  2.55003e-05
 Reference value :  2.55009e-05
 Reference value :  2.55026e-05
 Reference value :  2.55038e-05
 Reference value :  2.55058e-05
 Reference value :  2.55074e-05
 Reference value :  2.55102e-05
 Reference value :  2.55173e-05
 Reference value :  2.55222e-05
 Reference value :  2.55275e-05
 Reference value :  2.55310e-05
 Reference value :  2.55369e-05
 Reference value :  2.55407e-05
 Reference value :  2.55428e-05
 Reference value :  2.55486e-05
 Reference value :  2.55543e-05
 Reference value :  2.55603e-05
 Reference value :  2.55682e-05
 Reference value :  2.55875e-05
 Reference value :  2.57501e-05
 Reference value :  2.57502e-05
 Reference value :  2.57509e-05
 Reference value :  2.57524e-05
 Reference value :  2.57551e-05
 Reference value :  2.57594e-05
 Reference value :  2.58382e-05
 Reference value :  2.60001e-05
 Reference value :  2.60002e-05
 Reference value :  2.60013e-05
 Reference value :  2.60026e-05
 Reference value :  2.60057e-05
 Reference value :  2.60093e-05
 Reference value :  2.60152e-05
 Reference value :  2.60252e-05
 Reference value :  2.61190e-05
 Reference value :  2.62502e-05
 Reference value :  2.62503e-05
 Reference value :  2.62509e-05
 Reference value :  2.62518e-05
 Reference value :  2.62530e-05
 Reference value :  2.62544e-05
 Reference value :  2.62558e-05
 Reference value :  2.62576e-05
 Reference value :  2.62593e-05
 Reference value :  2.62648e-05
 Reference value :  2.63040e-05
 Reference value :  2.65000e-05
 Reference value :  2.65017e-05
 Reference value :  2.65051e-05
 Reference value :  2.65069e-05
 Reference value :  2.65099e-05
 Reference value :  2.65110e-05
 Reference value :  2.65122e-05
 Reference value :  2.65142e-05
 Reference value :  2.65161e-05
 Reference value :  2.65184e-05
 Reference value :  2.65233e-05
 Reference value :  2.65423e-05
 Reference value :  2.66463e-05
 Reference value :  2.67501e-05
 Reference value :  2.67502e-05
 Reference value :  2.67503e-05
 Reference value :  2.67507e-05
 Reference value :  2.67514e-05
 Reference value :  2.67524e-05
 Reference value :  2.67537e-05
 Reference value :  2.67543e-05
 Reference value :  2.67555e-05
 Reference value :  2.67588e-05
 Reference value :  2.67714e-05
 Reference value :  2.68976e-05
 Reference value :  2.70000e-05
 Reference value :  2.70001e-05
 Reference value :  2.70002e-05
 Reference value :  2.70008e-05
 Reference value :  2.70018e-05
 Reference value :  2.70026e-05
 Reference value :  2.70039e-05
 Reference value :  2.70056e-05
 Reference value :  2.70075e-05
 Reference value :  2.70092e-05
 Reference value :  2.70112e-05
 Reference value :  2.70278e-05
 Reference value :  2.72501e-05
 Reference value :  2.72502e-05
 Reference value :  2.72502e-05
 Reference value :  2.72504e-05
 Reference value :  2.72509e-05
 Reference value :  2.72514e-05
 Reference value :  2.72524e-05
 Reference value :  2.72538e-05
 Reference value :  2.72550e-05
 Reference value :  2.72567e-05
 Reference value :  2.72584e-05
 Reference value :  2.72621e-05
 Reference value :  2.72752e-05
 Reference value :  2.73480e-05
 Reference value :  2.75000e-05
 Reference value :  2.75001e-05
 Reference value :  2.75005e-05
 Reference value :  2.75013e-05
 Reference value :  2.75022e-05
 Reference value :  2.75033e-05
 Reference value :  2.75044e-05
 Reference value :  2.75056e-05
 Reference value :  2.75061e-05
 Reference value :  2.75076e-05
 Reference value :  2.75097e-05
 Reference value :  2.75107e-05
 Reference value :  2.75117e-05
 Reference value :  2.75137e-05
 Reference value :  2.75155e-05
 Reference value :  2.75175e-05
 Reference value :  2.75197e-05
 Reference value :  2.75231e-05
 Reference value :  2.75577e-05
 Reference value :  2.76861e-05
 Reference value :  2.77501e-05
 Reference value :  2.77502e-05
 Reference value :  2.77503e-05
 Reference value :  2.77507e-05
 Reference value :  2.77514e-05
 Reference value :  2.77524e-05
 Reference value :  2.77538e-05
 Reference value :  2.77550e-05
 Reference value :  2.77576e-05
 Reference value :  2.77653e-05
 Reference value :  2.78042e-05
 Reference value :  2.80018e-05
 Reference value :  2.80071e-05
 Reference value :  2.80103e-05
 Reference value :  2.80134e-05
 Reference value :  2.80284e-05
 Reference value :  2.81328e-05
 Reference value :  2.82501e-05
 Reference value :  2.82502e-05
 Reference value :  2.82503e-05
 Reference value :  2.82509e-05
 Reference value :  2.82519e-05
 Reference value :  2.82530e-05
 Reference value :  2.82542e-05
 Reference value :  2.82563e-05
 Reference value :  2.82581e-05
 Reference value :  2.82620e-05
 Reference value :  2.82731e-05
 Reference value :  2.83227e-05
 Reference value :  2.85000e-05
 Reference value :  2.85000e-05
 Reference value :  2.85002e-05
 Reference value :  2.85008e-05
 Reference value :  2.85018e-05
 Reference value :  2.85027e-05
 Reference value :  2.85044e-05
 Reference value :  2.85056e-05
 Reference value :  2.85076e-05
 Reference value :  2.85107e-05
 Reference value :  2.85129e-05
 Reference value :  2.85145e-05
 Reference value :  2.85165e-05
 Reference value :  2.85185e-05
 Reference value :  2.85213e-05
 Reference value :  2.85412e-05
 Reference value :  2.86008e-05
 Reference value :  2.86347e-05
 Reference value :  2.87443e-05
 Reference value :  2.87501e-05
 Reference value :  2.87502e-05
 Reference value :  2.87503e-05
 Reference value :  2.87504e-05
 Reference value :  2.87509e-05
 Reference value :  2.87514e-05
 Reference value :  2.87524e-05
 Reference value :  2.87538e-05
 Reference value :  2.87550e-05
 Reference value :  2.87576e-05
 Reference value :  2.87653e-05
 Reference value :  2.88391e-05
 Reference value :  2.90018e-05
 Reference value :  2.90054e-05
 Reference value :  2.90072e-05
 Reference value :  2.90104e-05
 Reference value :  2.90137e-05
 Reference value :  2.90296e-05
 Reference value :  2.90939e-05
 Reference value :  2.92501e-05
 Reference value :  2.92502e-05
 Reference value :  2.92502e-05
 Reference value :  2.92504e-05
 Reference value :  2.92509e-05
 Reference value :  2.92514e-05
 Reference value :  2.92524e-05
 Reference value :  2.92536e-05
 Reference value :  2.92548e-05
 Reference value :  2.92562e-05
 Reference value :  2.92580e-05
 Reference value :  2.92619e-05
 Reference value :  2.92732e-05
 Reference value :  2.93268e-05
 Reference value :  2.95000e-05
 Reference value :  2.95001e-05
 Reference value :  2.95001e-05
 Reference value :  2.95005e-05
 Reference value :  2.95013e-05
 Reference value :  2.95022e-05
 Reference value :  2.95033e-05
 Reference value :  2.95044e-05
 Reference value :  2.95056e-05
 Reference value :  2.95067e-05
 Reference value :  2.95097e-05
 Reference value :  2.95107e-05
 Reference value :  2.95129e-05
 Reference value :  2.95145e-05
 Reference value :  2.95164e-05
 Reference value :  2.95185e-05
 Reference value :  2.95230e-05
 Reference value :  2.95499e-05
 Reference value :  2.95680e-05
 Reference value :  2.95795e-05
 Reference value :  2.95913e-05
 Reference value :  2.96373e-05
 Reference value :  2.97247e-05
 Reference value :  2.97501e-05
 Reference value :  2.97502e-05
 Reference value :  2.97502e-05
 Reference value :  2.97504e-05
 Reference value :  2.97509e-05
 Reference value :  2.97514e-05
 Reference value :  2.97524e-05
 Reference value :  2.97536e-05
 Reference value :  2.97556e-05
 Reference value :  2.97591e-05
 Reference value :  2.97719e-05
 Reference value :  2.98350e-05
 Reference value :  2.98916e-05
 Reference value :  3.00000e-05
 Reference value :  3.00000e-05
 Reference value :  3.00001e-05
 Reference value :  3.00001e-05
 Reference value :  3.00002e-05
 Reference value :  3.00008e-05
 Reference value :  3.00018e-05
 Reference value :  3.00026e-05
 Reference value :  3.00040e-05
 Reference value :  3.00056e-05
 Reference value :  3.00074e-05
 Reference value :  3.00090e-05
 Reference value :  3.00112e-05
 Reference value :  3.00148e-05
 Reference value :  3.00467e-05
 Reference value :  3.02501e-05
 Reference value :  3.02501e-05
 Reference value :  3.02502e-05
 Reference value :  3.02503e-05
 Reference value :  3.02507e-05
 Reference value :  3.02514e-05
 Reference value :  3.02524e-05
 Reference value :  3.02538e-05
 Reference value :  3.02544e-05
 Reference value :  3.02558e-05
 Reference value :  3.02576e-05
 Reference value :  3.02593e-05
 Reference value :  3.02648e-05
 Reference value :  3.02752e-05
 Reference value :  3.03483e-05
 Reference value :  3.05013e-05
 Reference value :  3.05051e-05
 Reference value :  3.05072e-05
 Reference value :  3.05094e-05
 Reference value :  3.05113e-05
 Reference value :  3.05122e-05
 Reference value :  3.05140e-05
 Reference value :  3.05157e-05
 Reference value :  3.05176e-05
 Reference value :  3.05196e-05
 Reference value :  3.05289e-05
 Reference value :  3.05352e-05
 Reference value :  3.05405e-05
 Reference value :  3.05522e-05
 Reference value :  3.05957e-05
 Reference value :  3.06843e-05
 Reference value :  3.07501e-05
 Reference value :  3.07502e-05
 Reference value :  3.07503e-05
 Reference value :  3.07509e-05
 Reference value :  3.07514e-05
 Reference value :  3.07524e-05
 Reference value :  3.07544e-05
 Reference value :  3.07566e-05
 Reference value :  3.07653e-05
 Reference value :  3.08992e-05
 Reference value :  3.10001e-05
 Reference value :  3.10001e-05
 Reference value :  3.10003e-05
 Reference value :  3.10013e-05
 Reference value :  3.10022e-05
 Reference value :  3.10032e-05
 Reference value :  3.10044e-05
 Reference value :  3.10062e-05
 Reference value :  3.10082e-05
 Reference value :  3.10104e-05
 Reference value :  3.10129e-05
 Reference value :  3.10452e-05
 Reference value :  3.12501e-05
 Reference value :  3.12502e-05
 Reference value :  3.12502e-05
 Reference value :  3.12504e-05
 Reference value :  3.12509e-05
 Reference value :  3.12514e-05
 Reference value :  3.12524e-05
 Reference value :  3.12538e-05
 Reference value :  3.12544e-05
 Reference value :  3.12558e-05
 Reference value :  3.12576e-05
 Reference value :  3.12725e-05
 Reference value :  3.14052e-05
 Reference value :  3.15000e-05
 Reference value :  3.15001e-05
 Reference value :  3.15002e-05
 Reference value :  3.15008e-05
 Reference value :  3.15018e-05
 Reference value :  3.15027e-05
 Reference value :  3.15039e-05
 Reference value :  3.15050e-05
 Reference value :  3.15056e-05
 Reference value :  3.15061e-05
 Reference value :  3.15076e-05
 Reference value :  3.15100e-05
 Reference value :  3.15128e-05
 Reference value :  3.15139e-05
 Reference value :  3.15160e-05
 Reference value :  3.15170e-05
 Reference value :  3.15193e-05
 Reference value :  3.15257e-05
 Reference value :  3.15497e-05
 Reference value :  3.16199e-05
 Reference value :  3.17501e-05
 Reference value :  3.17502e-05
 Reference value :  3.17503e-05
 Reference value :  3.17507e-05
 Reference value :  3.17514e-05
 Reference value :  3.17524e-05
 Reference value :  3.17538e-05
 Reference value :  3.17550e-05
 Reference value :  3.17567e-05
 Reference value :  3.17592e-05
 Reference value :  3.17725e-05
 Reference value :  3.18402e-05
 Reference value :  3.20000e-05
 Reference value :  3.20001e-05
 Reference value :  3.20001e-05
 Reference value :  3.20002e-05
 Reference value :  3.20005e-05
 Reference value :  3.20013e-05
 Reference value :  3.20022e-05
 Reference value :  3.20032e-05
 Reference value :  3.20044e-05
 Reference value :  3.20062e-05
 Reference value :  3.20082e-05
 Reference value :  3.20116e-05
 Reference value :  3.20287e-05
 Reference value :  3.22501e-05
 Reference value :  3.22502e-05
 Reference value :  3.22502e-05
 Reference value :  3.22504e-05
 Reference value :  3.22514e-05
 Reference value :  3.22524e-05
 Reference value :  3.22538e-05
 Reference value :  3.22544e-05
 Reference value :  3.22558e-05
 Reference value :  3.22576e-05
 Reference value :  3.22655e-05
 Reference value :  3.23048e-05
 Reference value :  3.25000e-05
 Reference value :  3.25000e-05
 Reference value :  3.25001e-05
 Reference value :  3.25002e-05
 Reference value :  3.25005e-05
 Reference value :  3.25013e-05
 Reference value :  3.25022e-05
 Reference value :  3.25033e-05
 Reference value :  3.25044e-05
 Reference value :  3.25050e-05
 Reference value :  3.25056e-05
 Reference value :  3.25061e-05
 Reference value :  3.25076e-05
 Reference value :  3.25100e-05
 Reference value :  3.25128e-05
 Reference value :  3.25149e-05
 Reference value :  3.25170e-05
 Reference value :  3.25193e-05
 Reference value :  3.25258e-05
 Reference value :  3.25512e-05
 Reference value :  3.26819e-05
 Reference value :  3.27501e-05
 Reference value :  3.27502e-05
 Reference value :  3.27503e-05
 Reference value :  3.27504e-05
 Reference value :  3.27509e-05
 Reference value :  3.27518e-05
 Reference value :  3.27538e-05
 Reference value :  3.27557e-05
 Reference value :  3.27592e-05
 Reference value :  3.27655e-05
 Reference value :  3.27840e-05
 Reference value :  3.28401e-05
 Reference value :  3.30000e-05
 Reference value :  3.30001e-05
 Reference value :  3.30001e-05
 Reference value :  3.30002e-05
 Reference value :  3.30005e-05
 Reference value :  3.30013e-05
 Reference value :  3.30022e-05
 Reference value :  3.30032e-05
 Reference value :  3.30044e-05
 Reference value :  3.30062e-05
 Reference value :  3.30082e-05
 Reference value :  3.30104e-05
 Reference value :  3.30129e-05
 Reference value :  3.30287e-05
 Reference value :  3.30783e-05
 Reference value :  3.32501e-05
 Reference value :  3.32502e-05
 Reference value :  3.32502e-05
 Reference value :  3.32504e-05
 Reference value :  3.32509e-05
 Reference value :  3.32518e-05
 Reference value :  3.32538e-05
 Reference value :  3.32550e-05
 Reference value :  3.32576e-05
 Reference value :  3.32725e-05
 Reference value :  3.33395e-05
 Reference value :  3.35018e-05
 Reference value :  3.35072e-05
 Reference value :  3.35107e-05
 Reference value :  3.35215e-05
 Reference value :  3.35831e-05
 Reference value :  3.37501e-05
 Reference value :  3.37502e-05
 Reference value :  3.37507e-05
 Reference value :  3.37519e-05
 Reference value :  3.37537e-05
 Reference value :  3.37562e-05
 Reference value :  3.37687e-05
 Reference value :  3.38490e-05
 Reference value :  3.40001e-05
 Reference value :  3.40002e-05
 Reference value :  3.40006e-05
 Reference value :  3.40015e-05
 Reference value :  3.40026e-05
 Reference value :  3.40038e-05
 Reference value :  3.40060e-05
 Reference value :  3.40088e-05
 Reference value :  3.40189e-05
 Reference value :  3.40243e-05
 Reference value :  3.40284e-05
 Reference value :  3.40315e-05
 Reference value :  3.40368e-05
 Reference value :  3.40399e-05
 Reference value :  3.40436e-05
 Reference value :  3.40529e-05
 Reference value :  3.40599e-05
 Reference value :  3.40652e-05
 Reference value :  3.40706e-05
 Reference value :  3.40854e-05
 Reference value :  3.41190e-05
 Reference value :  3.42501e-05
 Reference value :  3.42502e-05
 Reference value :  3.42503e-05
 Reference value :  3.42514e-05
 Reference value :  3.42530e-05
 Reference value :  3.42551e-05
 Reference value :  3.42579e-05
 Reference value :  3.42846e-05
 Reference value :  3.45000e-05
 Reference value :  3.45001e-05
 Reference value :  3.45001e-05
 Reference value :  3.45003e-05
 Reference value :  3.45013e-05
 Reference value :  3.45022e-05
 Reference value :  3.45039e-05
 Reference value :  3.45055e-05
 Reference value :  3.45078e-05
 Reference value :  3.45117e-05
 Reference value :  3.45154e-05
 Reference value :  3.45218e-05
 Reference value :  3.45569e-05
 Reference value :  3.47257e-05
 Reference value :  3.47501e-05
 Reference value :  3.47502e-05
 Reference value :  3.47503e-05
 Reference value :  3.47507e-05
 Reference value :  3.47514e-05
 Reference value :  3.47530e-05
 Reference value :  3.47544e-05
 Reference value :  3.47567e-05
 Reference value :  3.47584e-05
 Reference value :  3.47621e-05
 Reference value :  3.47875e-05
 Reference value :  3.49259e-05
 Reference value :  3.50000e-05
 Reference value :  3.50001e-05
 Reference value :  3.50003e-05
 Reference value :  3.50013e-05
 Reference value :  3.50027e-05
 Reference value :  3.50044e-05
 Reference value :  3.50056e-05
 Reference value :  3.50076e-05
 Reference value :  3.50107e-05
 Reference value :  3.50128e-05
 Reference value :  3.50155e-05
 Reference value :  3.50186e-05
 Reference value :  3.50268e-05
 Reference value :  3.51385e-05
 Reference value :  3.52501e-05
 Reference value :  3.52502e-05
 Reference value :  3.52507e-05
 Reference value :  3.52518e-05
 Reference value :  3.52538e-05
 Reference value :  3.52550e-05
 Reference value :  3.52576e-05
 Reference value :  3.52723e-05
 Reference value :  3.54044e-05
 Reference value :  3.55000e-05
 Reference value :  3.55001e-05
 Reference value :  3.55005e-05
 Reference value :  3.55013e-05
 Reference value :  3.55022e-05
 Reference value :  3.55039e-05
 Reference value :  3.55055e-05
 Reference value :  3.55073e-05
 Reference value :  3.55090e-05
 Reference value :  3.55148e-05
 Reference value :  3.55850e-05
 Reference value :  3.57501e-05
 Reference value :  3.57502e-05
 Reference value :  3.57507e-05
 Reference value :  3.57514e-05
 Reference value :  3.57530e-05
 Reference value :  3.57544e-05
 Reference value :  3.57567e-05
 Reference value :  3.57584e-05
 Reference value :  3.57649e-05
 Reference value :  3.58076e-05
 Reference value :  3.60013e-05
 Reference value :  3.60052e-05
 Reference value :  3.60075e-05
 Reference value :  3.60105e-05
 Reference value :  3.60125e-05
 Reference value :  3.60144e-05
 Reference value :  3.60161e-05
 Reference value :  3.60182e-05
 Reference value :  3.60207e-05
 Reference value :  3.60406e-05
 Reference value :  3.61249e-05
 Reference value :  3.62501e-05
 Reference value :  3.62502e-05
 Reference value :  3.62503e-05
 Reference value :  3.62507e-05
 Reference value :  3.62514e-05
 Reference value :  3.62524e-05
 Reference value :  3.62543e-05
 Reference value :  3.62566e-05
 Reference value :  3.62613e-05
 Reference value :  3.63035e-05
 Reference value :  3.65000e-05
 Reference value :  3.65001e-05
 Reference value :  3.65002e-05
 Reference value :  3.65005e-05
 Reference value :  3.65013e-05
 Reference value :  3.65022e-05
 Reference value :  3.65033e-05
 Reference value :  3.65047e-05
 Reference value :  3.65066e-05
 Reference value :  3.65074e-05
 Reference value :  3.65090e-05
 Reference value :  3.65124e-05
 Reference value :  3.65471e-05
 Reference value :  3.67501e-05
 Reference value :  3.67502e-05
 Reference value :  3.67504e-05
 Reference value :  3.67514e-05
 Reference value :  3.67530e-05
 Reference value :  3.67544e-05
 Reference value :  3.67567e-05
 Reference value :  3.67584e-05
 Reference value :  3.67621e-05
 Reference value :  3.67752e-05
 Reference value :  3.69254e-05
 Reference value :  3.70000e-05
 Reference value :  3.70001e-05
 Reference value :  3.70002e-05
 Reference value :  3.70008e-05
 Reference value :  3.70018e-05
 Reference value :  3.70027e-05
 Reference value :  3.70039e-05
 Reference value :  3.70050e-05
 Reference value :  3.70056e-05
 Reference value :  3.70067e-05
 Reference value :  3.70084e-05
 Reference value :  3.70107e-05
 Reference value :  3.70128e-05
 Reference value :  3.70155e-05
 Reference value :  3.70185e-05
 Reference value :  3.70213e-05
 Reference value :  3.70575e-05
 Reference value :  3.71006e-05
 Reference value :  3.71183e-05
 Reference value :  3.72061e-05
 Reference value :  3.72502e-05
 Reference value :  3.72503e-05
 Reference value :  3.72514e-05
 Reference value :  3.72530e-05
 Reference value :  3.72550e-05
 Reference value :  3.72591e-05
 Reference value :  3.73042e-05
 Reference value :  3.75000e-05
 Reference value :  3.75001e-05
 Reference value :  3.75002e-05
 Reference value :  3.75013e-05
 Reference value :  3.75022e-05
 Reference value :  3.75039e-05
 Reference value :  3.75055e-05
 Reference value :  3.75073e-05
 Reference value :  3.75090e-05
 Reference value :  3.75112e-05
 Reference value :  3.75195e-05
 Reference value :  3.76601e-05
 Reference value :  3.77501e-05
 Reference value :  3.77502e-05
 Reference value :  3.77503e-05
 Reference value :  3.77509e-05
 Reference value :  3.77518e-05
 Reference value :  3.77538e-05
 Reference value :  3.77550e-05
 Reference value :  3.77567e-05
 Reference value :  3.77584e-05
 Reference value :  3.77607e-05
 Reference value :  3.77683e-05
 Reference value :  3.78076e-05
 Reference value :  3.80000e-05
 Reference value :  3.80001e-05
 Reference value :  3.80001e-05
 Reference value :  3.80002e-05
 Reference value :  3.80005e-05
 Reference value :  3.80013e-05
 Reference value :  3.80022e-05
 Reference value :  3.80033e-05
 Reference value :  3.80044e-05
 Reference value :  3.80056e-05
 Reference value :  3.80061e-05
 Reference value :  3.80076e-05
 Reference value :  3.80097e-05
 Reference value :  3.80107e-05
 Reference value :  3.80117e-05
 Reference value :  3.80137e-05
 Reference value :  3.80155e-05
 Reference value :  3.80174e-05
 Reference value :  3.80185e-05
 Reference value :  3.80213e-05
 Reference value :  3.80266e-05
 Reference value :  3.80491e-05
 Reference value :  3.80676e-05
 Reference value :  3.80732e-05
 Reference value :  3.80837e-05
 Reference value :  3.81060e-05
 Reference value :  3.81354e-05
 Reference value :  3.81893e-05
 Reference value :  3.82164e-05
 Reference value :  3.82501e-05
 Reference value :  3.82502e-05
 Reference value :  3.82503e-05
 Reference value :  3.82507e-05
 Reference value :  3.82514e-05
 Reference value :  3.82530e-05
 Reference value :  3.82544e-05
 Reference value :  3.82557e-05
 Reference value :  3.82592e-05
 Reference value :  3.82724e-05
 Reference value :  3.82868e-05
 Reference value :  3.83164e-05
 Reference value :  3.83609e-05
 Reference value :  3.84137e-05
 Reference value :  3.85000e-05
 Reference value :  3.85001e-05
 Reference value :  3.85006e-05
 Reference value :  3.85011e-05
 Reference value :  3.85017e-05
 Reference value :  3.85025e-05
 Reference value :  3.85038e-05
 Reference value :  3.85046e-05
 Reference value :  3.85064e-05
 Reference value :  3.85075e-05
 Reference value :  3.85094e-05
 Reference value :  3.85116e-05
 Reference value :  3.85195e-05
 Reference value :  3.86248e-05
 Reference value :  3.87501e-05
 Reference value :  3.87502e-05
 Reference value :  3.87503e-05
 Reference value :  3.87507e-05
 Reference value :  3.87514e-05
 Reference value :  3.87524e-05
 Reference value :  3.87538e-05
 Reference value :  3.87544e-05
 Reference value :  3.87558e-05
 Reference value :  3.87576e-05
 Reference value :  3.87593e-05
 Reference value :  3.87649e-05
 Reference value :  3.87877e-05
 Reference value :  3.89270e-05
 Reference value :  3.90000e-05
 Reference value :  3.90001e-05
 Reference value :  3.90001e-05
 Reference value :  3.90002e-05
 Reference value :  3.90005e-05
 Reference value :  3.90013e-05
 Reference value :  3.90022e-05
 Reference value :  3.90033e-05
 Reference value :  3.90044e-05
 Reference value :  3.90056e-05
 Reference value :  3.90061e-05
 Reference value :  3.90084e-05
 Reference value :  3.90107e-05
 Reference value :  3.90129e-05
 Reference value :  3.90145e-05
 Reference value :  3.90165e-05
 Reference value :  3.90188e-05
 Reference value :  3.90220e-05
 Reference value :  3.90276e-05
 Reference value :  3.90311e-05
 Reference value :  3.90336e-05
 Reference value :  3.90384e-05
 Reference value :  3.90583e-05
 Reference value :  3.91177e-05
 Reference value :  3.92099e-05
 Reference value :  3.92501e-05
 Reference value :  3.92502e-05
 Reference value :  3.92503e-05
 Reference value :  3.92504e-05
 Reference value :  3.92514e-05
 Reference value :  3.92524e-05
 Reference value :  3.92538e-05
 Reference value :  3.92550e-05
 Reference value :  3.92567e-05
 Reference value :  3.92614e-05
 Reference value :  3.92839e-05
 Reference value :  3.94068e-05
 Reference value :  3.95000e-05
 Reference value :  3.95001e-05
 Reference value :  3.95002e-05
 Reference value :  3.95005e-05
 Reference value :  3.95013e-05
 Reference value :  3.95022e-05
 Reference value :  3.95032e-05
 Reference value :  3.95044e-05
 Reference value :  3.95062e-05
 Reference value :  3.95082e-05
 Reference value :  3.95104e-05
 Reference value :  3.95129e-05
 Reference value :  3.95285e-05
 Reference value :  3.97501e-05
 Reference value :  3.97502e-05
 Reference value :  3.97502e-05
 Reference value :  3.97504e-05
 Reference value :  3.97514e-05
 Reference value :  3.97524e-05
 Reference value :  3.97538e-05
 Reference value :  3.97551e-05
 Reference value :  3.97576e-05
 Reference value :  3.97655e-05
 Reference value :  3.98396e-05
 Reference value :  4.00000e-05
 Reference value :  4.00001e-05
 Reference value :  4.00002e-05
 Reference value :  4.00003e-05
 Reference value :  4.00013e-05
 Reference value :  4.00022e-05
 Reference value :  4.00033e-05
 Reference value :  4.00044e-05
 Reference value :  4.00056e-05
 Reference value :  4.00067e-05
 Reference value :  4.00084e-05
 Reference value :  4.00114e-05
 Reference value :  4.00128e-05
 Reference value :  4.00149e-05
 Reference value :  4.00171e-05
 Reference value :  4.00211e-05
 Reference value :  4.00316e-05
 Reference value :  4.00661e-05
 Reference value :  4.01955e-05
 Reference value :  4.02501e-05
 Reference value :  4.02502e-05
 Reference value :  4.02503e-05
 Reference value :  4.02507e-05
 Reference value :  4.02514e-05
 Reference value :  4.02524e-05
 Reference value :  4.02538e-05
 Reference value :  4.02550e-05
 Reference value :  4.02567e-05
 Reference value :  4.02725e-05
 Reference value :  4.05000e-05
 Reference value :  4.05001e-05
 Reference value :  4.05002e-05
 Reference value :  4.05003e-05
 Reference value :  4.05008e-05
 Reference value :  4.05013e-05
 Reference value :  4.05022e-05
 Reference value :  4.05032e-05
 Reference value :  4.05044e-05
 Reference value :  4.05062e-05
 Reference value :  4.05082e-05
 Reference value :  4.05104e-05
 Reference value :  4.05155e-05
 Reference value :  4.05452e-05
 Reference value :  4.07501e-05
 Reference value :  4.07502e-05
 Reference value :  4.07503e-05
 Reference value :  4.07509e-05
 Reference value :  4.07518e-05
 Reference value :  4.07538e-05
 Reference value :  4.07558e-05
 Reference value :  4.07655e-05
 Reference value :  4.09050e-05
 Reference value :  4.10015e-05
 Reference value :  4.10045e-05
 Reference value :  4.10061e-05
 Reference value :  4.10106e-05
 Reference value :  4.10135e-05
 Reference value :  4.10155e-05
 Reference value :  4.10192e-05
 Reference value :  4.10296e-05
 Reference value :  4.11495e-05
 Reference value :  4.12501e-05
 Reference value :  4.12502e-05
 Reference value :  4.12504e-05
 Reference value :  4.12514e-05
 Reference value :  4.12524e-05
 Reference value :  4.12544e-05
 Reference value :  4.12567e-05
 Reference value :  4.12655e-05
 Reference value :  4.14056e-05
 Reference value :  4.15000e-05
 Reference value :  4.15001e-05
 Reference value :  4.15002e-05
 Reference value :  4.15008e-05
 Reference value :  4.15013e-05
 Reference value :  4.15022e-05
 Reference value :  4.15032e-05
 Reference value :  4.15044e-05
 Reference value :  4.15072e-05
 Reference value :  4.15093e-05
 Reference value :  4.15116e-05
 Reference value :  4.15286e-05
 Reference value :  4.17501e-05
 Reference value :  4.17502e-05
 Reference value :  4.17502e-05
 Reference value :  4.17504e-05
 Reference value :  4.17514e-05
 Reference value :  4.17524e-05
 Reference value :  4.17538e-05
 Reference value :  4.17550e-05
 Reference value :  4.17576e-05
 Reference value :  4.17838e-05
 Reference value :  4.20000e-05
 Reference value :  4.20001e-05
 Reference value :  4.20002e-05
 Reference value :  4.20005e-05
 Reference value :  4.20018e-05
 Reference value :  4.20033e-05
 Reference value :  4.20044e-05
 Reference value :  4.20056e-05
 Reference value :  4.20067e-05
 Reference value :  4.20093e-05
 Reference value :  4.20179e-05
 Reference value :  4.22501e-05
 Reference value :  4.22502e-05
 Reference value :  4.22503e-05
 Reference value :  4.22514e-05
 Reference value :  4.22530e-05
 Reference value :  4.22556e-05
 Reference value :  4.22649e-05
 Reference value :  4.23840e-05
 Reference value :  4.25001e-05
 Reference value :  4.25002e-05
 Reference value :  4.25015e-05
 Reference value :  4.25032e-05
 Reference value :  4.25045e-05
 Reference value :  4.25067e-05
 Reference value :  4.25138e-05
 Reference value :  4.25243e-05
 Reference value :  4.25284e-05
 Reference value :  4.25315e-05
 Reference value :  4.25367e-05
 Reference value :  4.25398e-05
 Reference value :  4.25415e-05
 Reference value :  4.25451e-05
 Reference value :  4.25493e-05
 Reference value :  4.25570e-05
 Reference value :  4.25604e-05
 Reference value :  4.25637e-05
 Reference value :  4.25660e-05
 Reference value :  4.25711e-05
 Reference value :  4.25737e-05
 Reference value :  4.25826e-05
 Reference value :  4.25945e-05
 Reference value :  4.26222e-05
 Reference value :  4.27501e-05
 Reference value :  4.27502e-05
 Reference value :  4.27502e-05
 Reference value :  4.27503e-05
 Reference value :  4.27509e-05
 Reference value :  4.27514e-05
 Reference value :  4.27524e-05
 Reference value :  4.27537e-05
 Reference value :  4.27551e-05
 Reference value :  4.27567e-05
 Reference value :  4.27619e-05
 Reference value :  4.27846e-05
 Reference value :  4.29009e-05
 Reference value :  4.30000e-05
 Reference value :  4.30001e-05
 Reference value :  4.30002e-05
 Reference value :  4.30008e-05
 Reference value :  4.30018e-05
 Reference value :  4.30022e-05
 Reference value :  4.30033e-05
 Reference value :  4.30047e-05
 Reference value :  4.30078e-05
 Reference value :  4.30117e-05
 Reference value :  4.30154e-05
 Reference value :  4.30218e-05
 Reference value :  4.30848e-05
 Reference value :  4.32501e-05
 Reference value :  4.32502e-05
 Reference value :  4.32504e-05
 Reference value :  4.32514e-05
 Reference value :  4.32530e-05
 Reference value :  4.32544e-05
 Reference value :  4.32567e-05
 Reference value :  4.32593e-05
 Reference value :  4.32683e-05
 Reference value :  4.34261e-05
 Reference value :  4.35013e-05
 Reference value :  4.35038e-05
 Reference value :  4.35051e-05
 Reference value :  4.35073e-05
 Reference value :  4.35103e-05
 Reference value :  4.35122e-05
 Reference value :  4.35140e-05
 Reference value :  4.35157e-05
 Reference value :  4.35177e-05
 Reference value :  4.35198e-05
 Reference value :  4.35261e-05
 Reference value :  4.35519e-05
 Reference value :  4.36689e-05
 Reference value :  4.37501e-05
 Reference value :  4.37501e-05
 Reference value :  4.37502e-05
 Reference value :  4.37502e-05
 Reference value :  4.37504e-05
 Reference value :  4.37509e-05
 Reference value :  4.37514e-05
 Reference value :  4.37524e-05
 Reference value :  4.37537e-05
 Reference value :  4.37543e-05
 Reference value :  4.37566e-05
 Reference value :  4.37613e-05
 Reference value :  4.37830e-05
 Reference value :  4.38981e-05
 Reference value :  4.40000e-05
 Reference value :  4.40001e-05
 Reference value :  4.40001e-05
 Reference value :  4.40002e-05
 Reference value :  4.40008e-05
 Reference value :  4.40013e-05
 Reference value :  4.40022e-05
 Reference value :  4.40039e-05
 Reference value :  4.40055e-05
 Reference value :  4.40073e-05
 Reference value :  4.40090e-05
 Reference value :  4.40112e-05
 Reference value :  4.40196e-05
 Reference value :  4.40845e-05
 Reference value :  4.42501e-05
 Reference value :  4.42502e-05
 Reference value :  4.42503e-05
 Reference value :  4.42507e-05
 Reference value :  4.42514e-05
 Reference value :  4.42524e-05
 Reference value :  4.42538e-05
 Reference value :  4.42550e-05
 Reference value :  4.42576e-05
 Reference value :  4.42593e-05
 Reference value :  4.42683e-05
 Reference value :  4.43486e-05
 Reference value :  4.45000e-05
 Reference value :  4.45001e-05
 Reference value :  4.45002e-05
 Reference value :  4.45005e-05
 Reference value :  4.45013e-05
 Reference value :  4.45022e-05
 Reference value :  4.45033e-05
 Reference value :  4.45044e-05
 Reference value :  4.45056e-05
 Reference value :  4.45061e-05
 Reference value :  4.45076e-05
 Reference value :  4.45097e-05
 Reference value :  4.45107e-05
 Reference value :  4.45117e-05
 Reference value :  4.45137e-05
 Reference value :  4.45155e-05
 Reference value :  4.45175e-05
 Reference value :  4.45197e-05
 Reference value :  4.45231e-05
 Reference value :  4.45413e-05
 Reference value :  4.46244e-05
 Reference value :  4.47501e-05
 Reference value :  4.47502e-05
 Reference value :  4.47502e-05
 Reference value :  4.47504e-05
 Reference value :  4.47514e-05
 Reference value :  4.47530e-05
 Reference value :  4.47544e-05
 Reference value :  4.47566e-05
 Reference value :  4.47614e-05
 Reference value :  4.47836e-05
 Reference value :  4.49043e-05
 Reference value :  4.50001e-05
 Reference value :  4.50001e-05
 Reference value :  4.50002e-05
 Reference value :  4.50005e-05
 Reference value :  4.50013e-05
 Reference value :  4.50022e-05
 Reference value :  4.50039e-05
 Reference value :  4.50055e-05
 Reference value :  4.50073e-05
 Reference value :  4.50090e-05
 Reference value :  4.50124e-05
 Reference value :  4.50289e-05
 Reference value :  4.51600e-05
 Reference value :  4.52501e-05
 Reference value :  4.52502e-05
 Reference value :  4.52503e-05
 Reference value :  4.52507e-05
 Reference value :  4.52514e-05
 Reference value :  4.52524e-05
 Reference value :  4.52538e-05
 Reference value :  4.52550e-05
 Reference value :  4.52567e-05
 Reference value :  4.52584e-05
 Reference value :  4.52621e-05
 Reference value :  4.52752e-05
 Reference value :  4.53482e-05
 Reference value :  4.55000e-05
 Reference value :  4.55001e-05
 Reference value :  4.55002e-05
 Reference value :  4.55003e-05
 Reference value :  4.55013e-05
 Reference value :  4.55022e-05
 Reference value :  4.55033e-05
 Reference value :  4.55044e-05
 Reference value :  4.55056e-05
 Reference value :  4.55061e-05
 Reference value :  4.55076e-05
 Reference value :  4.55097e-05
 Reference value :  4.55107e-05
 Reference value :  4.55117e-05
 Reference value :  4.55128e-05
 Reference value :  4.55137e-05
 Reference value :  4.55155e-05
 Reference value :  4.55175e-05
 Reference value :  4.55185e-05
 Reference value :  4.55213e-05
 Reference value :  4.55322e-05
 Reference value :  4.55575e-05
 Reference value :  4.55984e-05
 Reference value :  4.56295e-05
 Reference value :  4.57027e-05
 Reference value :  4.57501e-05
 Reference value :  4.57501e-05
 Reference value :  4.57502e-05
 Reference value :  4.57502e-05
 Reference value :  4.57503e-05
 Reference value :  4.57507e-05
 Reference value :  4.57514e-05
 Reference value :  4.57524e-05
 Reference value :  4.57530e-05
 Reference value :  4.57538e-05
 Reference value :  4.57544e-05
 Reference value :  4.57557e-05
 Reference value :  4.57576e-05
 Reference value :  4.57614e-05
 Reference value :  4.57723e-05
 Reference value :  4.58042e-05
 Reference value :  4.59043e-05
 Reference value :  4.60018e-05
 Reference value :  4.60054e-05
 Reference value :  4.60072e-05
 Reference value :  4.60104e-05
 Reference value :  4.60137e-05
 Reference value :  4.60185e-05
 Reference value :  4.60603e-05
 Reference value :  4.62501e-05
 Reference value :  4.62502e-05
 Reference value :  4.62503e-05
 Reference value :  4.62504e-05
 Reference value :  4.62509e-05
 Reference value :  4.62514e-05
 Reference value :  4.62524e-05
 Reference value :  4.62536e-05
 Reference value :  4.62542e-05
 Reference value :  4.62555e-05
 Reference value :  4.62562e-05
 Reference value :  4.62580e-05
 Reference value :  4.62602e-05
 Reference value :  4.62637e-05
 Reference value :  4.62822e-05
 Reference value :  4.63745e-05
 Reference value :  4.65000e-05
 Reference value :  4.65001e-05
 Reference value :  4.65002e-05
 Reference value :  4.65008e-05
 Reference value :  4.65018e-05
 Reference value :  4.65022e-05
 Reference value :  4.65033e-05
 Reference value :  4.65044e-05
 Reference value :  4.65056e-05
 Reference value :  4.65061e-05
 Reference value :  4.65084e-05
 Reference value :  4.65107e-05
 Reference value :  4.65129e-05
 Reference value :  4.65145e-05
 Reference value :  4.65165e-05
 Reference value :  4.65185e-05
 Reference value :  4.65213e-05
 Reference value :  4.65411e-05
 Reference value :  4.65684e-05
 Reference value :  4.65792e-05
 Reference value :  4.66003e-05
 Reference value :  4.67501e-05
 Reference value :  4.67502e-05
 Reference value :  4.67503e-05
 Reference value :  4.67507e-05
 Reference value :  4.67514e-05
 Reference value :  4.67530e-05
 Reference value :  4.67544e-05
 Reference value :  4.67566e-05
 Reference value :  4.67614e-05
 Reference value :  4.67839e-05
 Reference value :  4.67985e-05
 Reference value :  4.68332e-05
 Reference value :  4.68682e-05
 Reference value :  4.69287e-05
 Reference value :  4.70000e-05
 Reference value :  4.70001e-05
 Reference value :  4.70001e-05
 Reference value :  4.70003e-05
 Reference value :  4.70013e-05
 Reference value :  4.70022e-05
 Reference value :  4.70040e-05
 Reference value :  4.70066e-05
 Reference value :  4.70082e-05
 Reference value :  4.70100e-05
 Reference value :  4.70148e-05
 Reference value :  4.70843e-05
 Reference value :  4.72501e-05
 Reference value :  4.72502e-05
 Reference value :  4.72503e-05
 Reference value :  4.72507e-05
 Reference value :  4.72514e-05
 Reference value :  4.72530e-05
 Reference value :  4.72544e-05
 Reference value :  4.72567e-05
 Reference value :  4.72584e-05
 Reference value :  4.72607e-05
 Reference value :  4.72649e-05
 Reference value :  4.72874e-05
 Reference value :  4.74245e-05
 Reference value :  4.75000e-05
 Reference value :  4.75001e-05
 Reference value :  4.75001e-05
 Reference value :  4.75002e-05
 Reference value :  4.75005e-05
 Reference value :  4.75013e-05
 Reference value :  4.75022e-05
 Reference value :  4.75033e-05
 Reference value :  4.75044e-05
 Reference value :  4.75056e-05
 Reference value :  4.75067e-05
[...]
 Reference value :  2.59755e-04
 Reference value :  2.59758e-04
 Reference value :  2.59765e-04
 Reference value :  2.59840e-04
 Reference value :  2.60000e-04
 Reference value :  2.60000e-04
 Reference value :  2.60000e-04
 Reference value :  2.60000e-04
 Reference value :  2.60001e-04
 Reference value :  2.60002e-04
 Reference value :  2.60003e-04
 Reference value :  2.60004e-04
 Reference value :  2.60006e-04
 Reference value :  2.60006e-04
 Reference value :  2.60008e-04
 Reference value :  2.60010e-04
 Reference value :  2.60013e-04
 Reference value :  2.60015e-04
 Reference value :  2.60017e-04
 Reference value :  2.60021e-04
 Reference value :  2.60032e-04
 Reference value :  2.60072e-04
 Reference value :  2.60164e-04
 Reference value :  2.60250e-04
 Reference value :  2.60250e-04
 Reference value :  2.60250e-04
 Reference value :  2.60251e-04
 Reference value :  2.60251e-04
 Reference value :  2.60252e-04
 Reference value :  2.60254e-04
 Reference value :  2.60254e-04
 Reference value :  2.60256e-04
 Reference value :  2.60258e-04
 Reference value :  2.60265e-04
 Reference value :  2.60340e-04
 Reference value :  2.60500e-04
 Reference value :  2.60500e-04
 Reference value :  2.60500e-04
 Reference value :  2.60502e-04
 Reference value :  2.60503e-04
 Reference value :  2.60504e-04
 Reference value :  2.60507e-04
 Reference value :  2.60510e-04
 Reference value :  2.60515e-04
 Reference value :  2.60578e-04
 Reference value :  2.60750e-04
 Reference value :  2.60750e-04
 Reference value :  2.60751e-04
 Reference value :  2.60752e-04
 Reference value :  2.60754e-04
 Reference value :  2.60756e-04
 Reference value :  2.60761e-04
 Reference value :  2.60840e-04
 Reference value :  2.61000e-04
 Reference value :  2.61000e-04
 Reference value :  2.61000e-04
 Reference value :  2.61001e-04
 Reference value :  2.61002e-04
 Reference value :  2.61003e-04
 Reference value :  2.61004e-04
 Reference value :  2.61006e-04
 Reference value :  2.61007e-04
 Reference value :  2.61010e-04
 Reference value :  2.61013e-04
 Reference value :  2.61015e-04
 Reference value :  2.61017e-04
 Reference value :  2.61021e-04
 Reference value :  2.61041e-04
 Reference value :  2.61198e-04
 Reference value :  2.61250e-04
 Reference value :  2.61250e-04
 Reference value :  2.61250e-04
 Reference value :  2.61251e-04
 Reference value :  2.61253e-04
 Reference value :  2.61254e-04
 Reference value :  2.61257e-04
 Reference value :  2.61261e-04
 Reference value :  2.61284e-04
 Reference value :  2.61500e-04
 Reference value :  2.61500e-04
 Reference value :  2.61500e-04
 Reference value :  2.61500e-04
 Reference value :  2.61501e-04
 Reference value :  2.61502e-04
 Reference value :  2.61503e-04
 Reference value :  2.61504e-04
 Reference value :  2.61506e-04
 Reference value :  2.61508e-04
 Reference value :  2.61512e-04
 Reference value :  2.61529e-04
 Reference value :  2.61750e-04
 Reference value :  2.61750e-04
 Reference value :  2.61750e-04
 Reference value :  2.61751e-04
 Reference value :  2.61751e-04
 Reference value :  2.61753e-04
 Reference value :  2.61754e-04
 Reference value :  2.61757e-04
 Reference value :  2.61773e-04
 Reference value :  2.62000e-04
 Reference value :  2.62000e-04
 Reference value :  2.62001e-04
 Reference value :  2.62003e-04
 Reference value :  2.62004e-04
 Reference value :  2.62006e-04
 Reference value :  2.62008e-04
 Reference value :  2.62011e-04
 Reference value :  2.62014e-04
 Reference value :  2.62017e-04
 Reference value :  2.62021e-04
 Reference value :  2.62052e-04
 Reference value :  2.62250e-04
 Reference value :  2.62250e-04
 Reference value :  2.62250e-04
 Reference value :  2.62251e-04
 Reference value :  2.62253e-04
 Reference value :  2.62255e-04
 Reference value :  2.62258e-04
 Reference value :  2.62273e-04
 Reference value :  2.62500e-04
 Reference value :  2.62500e-04
 Reference value :  2.62500e-04
 Reference value :  2.62501e-04
 Reference value :  2.62502e-04
 Reference value :  2.62503e-04
 Reference value :  2.62504e-04
 Reference value :  2.62507e-04
 Reference value :  2.62509e-04
 Reference value :  2.62513e-04
 Reference value :  2.62578e-04
 Reference value :  2.62750e-04
 Reference value :  2.62750e-04
 Reference value :  2.62751e-04
 Reference value :  2.62752e-04
 Reference value :  2.62754e-04
 Reference value :  2.62756e-04
 Reference value :  2.62761e-04
 Reference value :  2.62905e-04
 Reference value :  2.63000e-04
 Reference value :  2.63000e-04
 Reference value :  2.63001e-04
 Reference value :  2.63002e-04
 Reference value :  2.63004e-04
 Reference value :  2.63004e-04
 Reference value :  2.63006e-04
 Reference value :  2.63006e-04
 Reference value :  2.63008e-04
 Reference value :  2.63009e-04
 Reference value :  2.63010e-04
 Reference value :  2.63018e-04
 Reference value :  2.63079e-04
 Reference value :  2.63250e-04
 Reference value :  2.63250e-04
 Reference value :  2.63250e-04
 Reference value :  2.63250e-04
 Reference value :  2.63251e-04
 Reference value :  2.63251e-04
 Reference value :  2.63252e-04
 Reference value :  2.63254e-04
 Reference value :  2.63256e-04
 Reference value :  2.63258e-04
 Reference value :  2.63262e-04
 Reference value :  2.63281e-04
 Reference value :  2.63384e-04
 Reference value :  2.63500e-04
 Reference value :  2.63500e-04
 Reference value :  2.63500e-04
 Reference value :  2.63501e-04
 Reference value :  2.63502e-04
 Reference value :  2.63503e-04
 Reference value :  2.63504e-04
 Reference value :  2.63505e-04
 Reference value :  2.63506e-04
 Reference value :  2.63509e-04
 Reference value :  2.63519e-04
 Reference value :  2.63524e-04
 Reference value :  2.63531e-04
 Reference value :  2.63539e-04
 Reference value :  2.63542e-04
 Reference value :  2.63550e-04
 Reference value :  2.63567e-04
 Reference value :  2.63592e-04
 Reference value :  2.63598e-04
 Reference value :  2.63605e-04
 Reference value :  2.63618e-04
 Reference value :  2.63635e-04
 Reference value :  2.63747e-04
 Reference value :  2.63750e-04
 Reference value :  2.63750e-04
 Reference value :  2.63750e-04
 Reference value :  2.63751e-04
 Reference value :  2.63751e-04
 Reference value :  2.63752e-04
 Reference value :  2.63754e-04
 Reference value :  2.63755e-04
 Reference value :  2.63757e-04
 Reference value :  2.63759e-04
 Reference value :  2.63773e-04
 Reference value :  2.63838e-04
 Reference value :  2.64000e-04
 Reference value :  2.64000e-04
 Reference value :  2.64000e-04
 Reference value :  2.64000e-04
 Reference value :  2.64000e-04
 Reference value :  2.64001e-04
 Reference value :  2.64002e-04
 Reference value :  2.64003e-04
 Reference value :  2.64005e-04
 Reference value :  2.64007e-04
 Reference value :  2.64008e-04
 Reference value :  2.64010e-04
 Reference value :  2.64014e-04
 Reference value :  2.64017e-04
 Reference value :  2.64026e-04
 Reference value :  2.64057e-04
 Reference value :  2.64250e-04
 Reference value :  2.64250e-04
 Reference value :  2.64250e-04
 Reference value :  2.64250e-04
 Reference value :  2.64251e-04
 Reference value :  2.64253e-04
 Reference value :  2.64254e-04
 Reference value :  2.64256e-04
 Reference value :  2.64258e-04
 Reference value :  2.64259e-04
 Reference value :  2.64265e-04
 Reference value :  2.64308e-04
 Reference value :  2.64500e-04
 Reference value :  2.64500e-04
 Reference value :  2.64500e-04
 Reference value :  2.64500e-04
 Reference value :  2.64501e-04
 Reference value :  2.64502e-04
 Reference value :  2.64503e-04
 Reference value :  2.64504e-04
 Reference value :  2.64506e-04
 Reference value :  2.64506e-04
 Reference value :  2.64508e-04
 Reference value :  2.64511e-04
 Reference value :  2.64512e-04
 Reference value :  2.64514e-04
 Reference value :  2.64515e-04
 Reference value :  2.64517e-04
 Reference value :  2.64519e-04
 Reference value :  2.64521e-04
 Reference value :  2.64527e-04
 Reference value :  2.64541e-04
 Reference value :  2.64585e-04
 Reference value :  2.64699e-04
 Reference value :  2.64750e-04
 Reference value :  2.64750e-04
 Reference value :  2.64750e-04
 Reference value :  2.64750e-04
 Reference value :  2.64750e-04
 Reference value :  2.64751e-04
 Reference value :  2.64751e-04
 Reference value :  2.64752e-04
 Reference value :  2.64754e-04
 Reference value :  2.64754e-04
 Reference value :  2.64756e-04
 Reference value :  2.64758e-04
 Reference value :  2.64761e-04
 Reference value :  2.64784e-04
 Reference value :  2.65000e-04
 Reference value :  2.65000e-04
 Reference value :  2.65000e-04
 Reference value :  2.65001e-04
 Reference value :  2.65002e-04
 Reference value :  2.65003e-04
 Reference value :  2.65005e-04
 Reference value :  2.65007e-04
 Reference value :  2.65007e-04
 Reference value :  2.65009e-04
 Reference value :  2.65012e-04
 Reference value :  2.65048e-04
 Reference value :  2.65250e-04
 Reference value :  2.65250e-04
 Reference value :  2.65250e-04
 Reference value :  2.65251e-04
 Reference value :  2.65251e-04
 Reference value :  2.65252e-04
 Reference value :  2.65254e-04
 Reference value :  2.65254e-04
 Reference value :  2.65257e-04
 Reference value :  2.65258e-04
 Reference value :  2.65262e-04
 Reference value :  2.65275e-04
 Reference value :  2.65348e-04
 Reference value :  2.65500e-04
 Reference value :  2.65500e-04
 Reference value :  2.65500e-04
 Reference value :  2.65500e-04
 Reference value :  2.65500e-04
 Reference value :  2.65501e-04
 Reference value :  2.65502e-04
 Reference value :  2.65503e-04
 Reference value :  2.65504e-04
 Reference value :  2.65506e-04
 Reference value :  2.65506e-04
 Reference value :  2.65508e-04
 Reference value :  2.65511e-04
 Reference value :  2.65513e-04
 Reference value :  2.65515e-04
 Reference value :  2.65519e-04
 Reference value :  2.65527e-04
 Reference value :  2.65584e-04
 Reference value :  2.65667e-04
 Reference value :  2.65750e-04
 Reference value :  2.65750e-04
 Reference value :  2.65750e-04
 Reference value :  2.65751e-04
 Reference value :  2.65752e-04
 Reference value :  2.65754e-04
 Reference value :  2.65756e-04
 Reference value :  2.65761e-04
 Reference value :  2.65839e-04
 Reference value :  2.66000e-04
 Reference value :  2.66000e-04
 Reference value :  2.66001e-04
 Reference value :  2.66002e-04
 Reference value :  2.66005e-04
 Reference value :  2.66007e-04
 Reference value :  2.66007e-04
 Reference value :  2.66009e-04
 Reference value :  2.66011e-04
 Reference value :  2.66085e-04
 Reference value :  2.66250e-04
 Reference value :  2.66250e-04
 Reference value :  2.66251e-04
 Reference value :  2.66251e-04
 Reference value :  2.66253e-04
 Reference value :  2.66254e-04
 Reference value :  2.66257e-04
 Reference value :  2.66258e-04
 Reference value :  2.66262e-04
 Reference value :  2.66287e-04
 Reference value :  2.66500e-04
 Reference value :  2.66500e-04
 Reference value :  2.66500e-04
 Reference value :  2.66502e-04
 Reference value :  2.66504e-04
 Reference value :  2.66506e-04
 Reference value :  2.66510e-04
 Reference value :  2.66512e-04
 Reference value :  2.66514e-04
 Reference value :  2.66515e-04
 Reference value :  2.66519e-04
 Reference value :  2.66523e-04
 Reference value :  2.66541e-04
 Reference value :  2.66576e-04
 Reference value :  2.66594e-04
 Reference value :  2.66617e-04
 Reference value :  2.66680e-04
 Reference value :  2.66750e-04
 Reference value :  2.66750e-04
 Reference value :  2.66750e-04
 Reference value :  2.66750e-04
 Reference value :  2.66751e-04
 Reference value :  2.66752e-04
 Reference value :  2.66754e-04
 Reference value :  2.66755e-04
 Reference value :  2.66757e-04
 Reference value :  2.66761e-04
 Reference value :  2.66784e-04
 Reference value :  2.66907e-04
 Reference value :  2.67000e-04
 Reference value :  2.67000e-04
 Reference value :  2.67000e-04
 Reference value :  2.67001e-04
 Reference value :  2.67002e-04
 Reference value :  2.67003e-04
 Reference value :  2.67004e-04
 Reference value :  2.67005e-04
 Reference value :  2.67007e-04
 Reference value :  2.67008e-04
 Reference value :  2.67010e-04
 Reference value :  2.67016e-04
 Reference value :  2.67077e-04
 Reference value :  2.67143e-04
 Reference value :  2.67250e-04
 Reference value :  2.67250e-04
 Reference value :  2.67250e-04
 Reference value :  2.67250e-04
 Reference value :  2.67251e-04
 Reference value :  2.67254e-04
 Reference value :  2.67255e-04
 Reference value :  2.67258e-04
 Reference value :  2.67265e-04
 Reference value :  2.67500e-04
 Reference value :  2.67500e-04
 Reference value :  2.67500e-04
 Reference value :  2.67501e-04
 Reference value :  2.67502e-04
 Reference value :  2.67503e-04
 Reference value :  2.67504e-04
 Reference value :  2.67506e-04
 Reference value :  2.67506e-04
 Reference value :  2.67508e-04
 Reference value :  2.67510e-04
 Reference value :  2.67511e-04
 Reference value :  2.67513e-04
 Reference value :  2.67514e-04
 Reference value :  2.67516e-04
 Reference value :  2.67517e-04
 Reference value :  2.67519e-04
 Reference value :  2.67526e-04
 Reference value :  2.67538e-04
 Reference value :  2.67546e-04
 Reference value :  2.67551e-04
 Reference value :  2.67569e-04
 Reference value :  2.67644e-04
 Reference value :  2.67750e-04
 Reference value :  2.67750e-04
 Reference value :  2.67750e-04
 Reference value :  2.67750e-04
 Reference value :  2.67751e-04
 Reference value :  2.67751e-04
 Reference value :  2.67752e-04
 Reference value :  2.67754e-04
 Reference value :  2.67755e-04
 Reference value :  2.67757e-04
 Reference value :  2.67759e-04
 Reference value :  2.67766e-04
 Reference value :  2.67805e-04
 Reference value :  2.68000e-04
 Reference value :  2.68000e-04
 Reference value :  2.68000e-04
 Reference value :  2.68000e-04
 Reference value :  2.68001e-04
 Reference value :  2.68002e-04
 Reference value :  2.68004e-04
 Reference value :  2.68006e-04
 Reference value :  2.68007e-04
 Reference value :  2.68009e-04
 Reference value :  2.68012e-04
 Reference value :  2.68029e-04
 Reference value :  2.68160e-04
 Reference value :  2.68250e-04
 Reference value :  2.68250e-04
 Reference value :  2.68251e-04
 Reference value :  2.68252e-04
 Reference value :  2.68254e-04
 Reference value :  2.68256e-04
 Reference value :  2.68258e-04
 Reference value :  2.68262e-04
 Reference value :  2.68308e-04
 Reference value :  2.68500e-04
 Reference value :  2.68500e-04
 Reference value :  2.68500e-04
 Reference value :  2.68501e-04
 Reference value :  2.68502e-04
 Reference value :  2.68503e-04
 Reference value :  2.68504e-04
 Reference value :  2.68506e-04
 Reference value :  2.68507e-04
 Reference value :  2.68510e-04
 Reference value :  2.68512e-04
 Reference value :  2.68514e-04
 Reference value :  2.68517e-04
 Reference value :  2.68520e-04
 Reference value :  2.68534e-04
 Reference value :  2.68556e-04
 Reference value :  2.68589e-04
 Reference value :  2.68618e-04
 Reference value :  2.68687e-04
 Reference value :  2.68750e-04
 Reference value :  2.68750e-04
 Reference value :  2.68751e-04
 Reference value :  2.68752e-04
 Reference value :  2.68754e-04
 Reference value :  2.68756e-04
 Reference value :  2.68761e-04
 Reference value :  2.68904e-04
 Reference value :  2.69000e-04
 Reference value :  2.69000e-04
 Reference value :  2.69001e-04
 Reference value :  2.69002e-04
 Reference value :  2.69004e-04
 Reference value :  2.69007e-04
 Reference value :  2.69008e-04
 Reference value :  2.69011e-04
 Reference value :  2.69048e-04
 Reference value :  2.69250e-04
 Reference value :  2.69250e-04
 Reference value :  2.69250e-04
 Reference value :  2.69251e-04
 Reference value :  2.69253e-04
 Reference value :  2.69254e-04
 Reference value :  2.69257e-04
 Reference value :  2.69258e-04
 Reference value :  2.69262e-04
 Reference value :  2.69287e-04
 Reference value :  2.69500e-04
 Reference value :  2.69500e-04
 Reference value :  2.69500e-04
 Reference value :  2.69501e-04
 Reference value :  2.69502e-04
 Reference value :  2.69503e-04
 Reference value :  2.69504e-04
 Reference value :  2.69506e-04
 Reference value :  2.69507e-04
 Reference value :  2.69510e-04
 Reference value :  2.69511e-04
 Reference value :  2.69513e-04
 Reference value :  2.69514e-04
 Reference value :  2.69517e-04
 Reference value :  2.69520e-04
 Reference value :  2.69528e-04
 Reference value :  2.69535e-04
 Reference value :  2.69570e-04
 Reference value :  2.69715e-04
 Reference value :  2.69750e-04
 Reference value :  2.69750e-04
 Reference value :  2.69751e-04
 Reference value :  2.69752e-04
 Reference value :  2.69754e-04
 Reference value :  2.69755e-04
 Reference value :  2.69759e-04
 Reference value :  2.69804e-04
 Reference value :  2.70000e-04
 Reference value :  2.70000e-04
 Reference value :  2.70000e-04
 Reference value :  2.70001e-04
 Reference value :  2.70002e-04
 Reference value :  2.70004e-04
 Reference value :  2.70007e-04
 Reference value :  2.70008e-04
 Reference value :  2.70011e-04
 Reference value :  2.70048e-04
 Reference value :  2.70250e-04
 Reference value :  2.70250e-04
 Reference value :  2.70250e-04
 Reference value :  2.70251e-04
 Reference value :  2.70253e-04
 Reference value :  2.70254e-04
 Reference value :  2.70257e-04
 Reference value :  2.70258e-04
 Reference value :  2.70262e-04
 Reference value :  2.70275e-04
 Reference value :  2.70347e-04
 Reference value :  2.70500e-04
 Reference value :  2.70500e-04
 Reference value :  2.70500e-04
 Reference value :  2.70500e-04
 Reference value :  2.70501e-04
 Reference value :  2.70502e-04
 Reference value :  2.70503e-04
 Reference value :  2.70504e-04
 Reference value :  2.70506e-04
 Reference value :  2.70506e-04
 Reference value :  2.70508e-04
 Reference value :  2.70510e-04
 Reference value :  2.70511e-04
 Reference value :  2.70513e-04
 Reference value :  2.70514e-04
 Reference value :  2.70516e-04
 Reference value :  2.70518e-04
 Reference value :  2.70522e-04
 Reference value :  2.70530e-04
 Reference value :  2.70569e-04
 Reference value :  2.70750e-04
 Reference value :  2.70750e-04
 Reference value :  2.70750e-04
 Reference value :  2.70751e-04
 Reference value :  2.70751e-04
 Reference value :  2.70753e-04
 Reference value :  2.70754e-04
 Reference value :  2.70757e-04
 Reference value :  2.70761e-04
 Reference value :  2.70804e-04
 Reference value :  2.71000e-04
 Reference value :  2.71000e-04
 Reference value :  2.71000e-04
 Reference value :  2.71001e-04
 Reference value :  2.71002e-04
 Reference value :  2.71004e-04
 Reference value :  2.71006e-04
 Reference value :  2.71007e-04
 Reference value :  2.71009e-04
 Reference value :  2.71011e-04
 Reference value :  2.71020e-04
 Reference value :  2.71085e-04
 Reference value :  2.71250e-04
 Reference value :  2.71250e-04
 Reference value :  2.71250e-04
 Reference value :  2.71251e-04
 Reference value :  2.71252e-04
 Reference value :  2.71254e-04
 Reference value :  2.71255e-04
 Reference value :  2.71257e-04
 Reference value :  2.71258e-04
 Reference value :  2.71262e-04
 Reference value :  2.71287e-04
 Reference value :  2.71422e-04
 Reference value :  2.71500e-04
 Reference value :  2.71500e-04
 Reference value :  2.71500e-04
 Reference value :  2.71501e-04
 Reference value :  2.71502e-04
 Reference value :  2.71503e-04
 Reference value :  2.71504e-04
 Reference value :  2.71506e-04
 Reference value :  2.71506e-04
 Reference value :  2.71508e-04
 Reference value :  2.71509e-04
 Reference value :  2.71510e-04
 Reference value :  2.71512e-04
 Reference value :  2.71516e-04
 Reference value :  2.71520e-04
 Reference value :  2.71539e-04
 Reference value :  2.71601e-04
 Reference value :  2.71630e-04
 Reference value :  2.71654e-04
 Reference value :  2.71733e-04
 Reference value :  2.71750e-04
 Reference value :  2.71750e-04
 Reference value :  2.71750e-04
 Reference value :  2.71751e-04
 Reference value :  2.71753e-04
 Reference value :  2.71756e-04
 Reference value :  2.71762e-04
 Reference value :  2.71826e-04
 Reference value :  2.72000e-04
No. of Data Rows : 38972
ngspice-44 done
