
Note: Compatibility modes selected: hs a


Circuit: ** sch_path: /home/issa/cace/sar-adc-using-sky130-pdk/runs/run_2025-09-07_22-02-54/parameters/offset_error/run_0/offset_error.sch

option SCALE: Scale is set to 1e-06 for instance and model parameters
option SCALE: Scale is set to 1e-06 for instance and model parameters
option SCALE: Scale is set to 1e-06 for instance and model parameters
option SCALE: Scale is set to 1e-06 for instance and model parameters
Doing analysis at TEMP = 27.000000 and TNOM = 27.000000

Using KLU as Direct Linear Solver
Operating point simulation skipped by 'uic',
  now using transient initial conditions.
 Reference value :  1.00000e-12
 Reference value :  1.02696e-12
 Reference value :  1.08087e-12
 Reference value :  1.18870e-12
 Reference value :  1.32942e-12
 Reference value :  1.61086e-12
 Reference value :  2.17374e-12
 Reference value :  3.01451e-12
 Reference value :  3.90939e-12
 Reference value :  5.12128e-12
 Reference value :  6.82251e-12
 Reference value :  1.00093e-11
 Reference value :  1.36617e-11
 Reference value :  2.02425e-11
 Reference value :  2.72702e-11
 Reference value :  3.60620e-11
 Reference value :  4.70867e-11
 Reference value :  6.37651e-11
 Reference value :  8.30544e-11
 Reference value :  1.00000e-10
 Reference value :  1.01435e-10
 Reference value :  1.04305e-10
 Reference value :  1.10046e-10
 Reference value :  1.21527e-10
 Reference value :  1.44489e-10
 Reference value :  1.90412e-10
 Reference value :  2.82259e-10
 Reference value :  4.33821e-10
 Reference value :  6.13904e-10
 Reference value :  8.94597e-10
 Reference value :  1.30836e-09
 Reference value :  1.79286e-09
 Reference value :  2.64007e-09
 Reference value :  3.47402e-09
 Reference value :  4.72782e-09
 Reference value :  5.61452e-09
 Reference value :  6.60961e-09
 Reference value :  7.61051e-09
 Reference value :  8.81087e-09
 Reference value :  9.90399e-09
 Reference value :  1.11582e-08
 Reference value :  1.25822e-08
 Reference value :  1.42814e-08
 Reference value :  1.69822e-08
 Reference value :  1.97758e-08
 Reference value :  2.30342e-08
 Reference value :  2.71883e-08
 Reference value :  3.05562e-08
 Reference value :  3.42041e-08
 Reference value :  3.83355e-08
 Reference value :  4.23506e-08
 Reference value :  4.52019e-08
 Reference value :  4.85117e-08
 Reference value :  5.24812e-08
 Reference value :  6.04202e-08
 Reference value :  7.62982e-08
 Reference value :  1.08054e-07
 Reference value :  1.71341e-07
 Reference value :  2.36005e-07
 Reference value :  2.50100e-07
 Reference value :  2.50110e-07
 Reference value :  2.50130e-07
 Reference value :  2.50170e-07
 Reference value :  2.50200e-07
 Reference value :  2.50201e-07
 Reference value :  2.50202e-07
 Reference value :  2.50204e-07
 Reference value :  2.50208e-07
 Reference value :  2.50216e-07
 Reference value :  2.50233e-07
 Reference value :  2.50267e-07
 Reference value :  2.50334e-07
 Reference value :  2.50429e-07
 Reference value :  2.50612e-07
 Reference value :  2.50793e-07
 Reference value :  2.51134e-07
 Reference value :  2.51557e-07
 Reference value :  2.52193e-07
 Reference value :  2.52861e-07
 Reference value :  2.53703e-07
 Reference value :  2.54709e-07
 Reference value :  2.55743e-07
 Reference value :  2.56675e-07
 Reference value :  2.57653e-07
 Reference value :  2.58698e-07
 Reference value :  2.59823e-07
 Reference value :  2.61295e-07
 Reference value :  2.63571e-07
 Reference value :  2.66008e-07
 Reference value :  2.69981e-07
 Reference value :  2.74866e-07
 Reference value :  2.84635e-07
 Reference value :  3.03492e-07
 Reference value :  3.35139e-07
 Reference value :  3.98434e-07
 Reference value :  5.00000e-07
 Reference value :  5.00010e-07
 Reference value :  5.00030e-07
 Reference value :  5.00070e-07
 Reference value :  5.00100e-07
 Reference value :  5.00104e-07
 Reference value :  5.00113e-07
 Reference value :  5.00130e-07
 Reference value :  5.00164e-07
 Reference value :  5.00232e-07
 Reference value :  5.00369e-07
 Reference value :  5.00560e-07
 Reference value :  5.00942e-07
 Reference value :  5.01545e-07
 Reference value :  5.02177e-07
 Reference value :  5.02822e-07
 Reference value :  5.03611e-07
 Reference value :  5.04356e-07
 Reference value :  5.05248e-07
 Reference value :  5.06200e-07
 Reference value :  5.07161e-07
 Reference value :  5.08580e-07
 Reference value :  5.09902e-07
 Reference value :  5.12436e-07
 Reference value :  5.16224e-07
 Reference value :  5.18778e-07
 Reference value :  5.21591e-07
 Reference value :  5.24498e-07
 Reference value :  5.27753e-07
 Reference value :  5.30729e-07
 Reference value :  5.33837e-07
 Reference value :  5.37264e-07
 Reference value :  5.40878e-07
 Reference value :  5.45334e-07
 Reference value :  5.50781e-07
 Reference value :  5.58122e-07
 Reference value :  5.69417e-07
 Reference value :  5.89748e-07
 Reference value :  6.30147e-07
 Reference value :  6.98854e-07
 Reference value :  7.50100e-07
 Reference value :  7.50110e-07
 Reference value :  7.50130e-07
 Reference value :  7.50170e-07
 Reference value :  7.50200e-07
 Reference value :  7.50201e-07
 Reference value :  7.50202e-07
 Reference value :  7.50205e-07
 Reference value :  7.50211e-07
 Reference value :  7.50223e-07
 Reference value :  7.50248e-07
 Reference value :  7.50296e-07
 Reference value :  7.50393e-07
 Reference value :  7.50586e-07
 Reference value :  7.50973e-07
 Reference value :  7.51566e-07
 Reference value :  7.52226e-07
 Reference value :  7.52989e-07
 Reference value :  7.53828e-07
 Reference value :  7.54922e-07
 Reference value :  7.55837e-07
 Reference value :  7.56917e-07
 Reference value :  7.57855e-07
 Reference value :  7.58863e-07
 Reference value :  7.59998e-07
 Reference value :  7.61271e-07
 Reference value :  7.62567e-07
 Reference value :  7.64435e-07
 Reference value :  7.66482e-07
 Reference value :  7.69281e-07
 Reference value :  7.72746e-07
 Reference value :  7.77788e-07
 Reference value :  7.87871e-07
 Reference value :  8.02228e-07
 Reference value :  8.29715e-07
 Reference value :  8.84689e-07
 Reference value :  9.94636e-07
 Reference value :  1.00000e-06
 Reference value :  1.00001e-06
 Reference value :  1.00003e-06
 Reference value :  1.00007e-06
 Reference value :  1.00010e-06
 Reference value :  1.00010e-06
 Reference value :  1.00011e-06
 Reference value :  1.00013e-06
 Reference value :  1.00016e-06
 Reference value :  1.00023e-06
 Reference value :  1.00037e-06
 Reference value :  1.00056e-06
 Reference value :  1.00095e-06
 Reference value :  1.00155e-06
 Reference value :  1.00218e-06
 Reference value :  1.00287e-06
 Reference value :  1.00359e-06
 Reference value :  1.00435e-06
 Reference value :  1.00520e-06
 Reference value :  1.00614e-06
 Reference value :  1.00708e-06
 Reference value :  1.00793e-06
 Reference value :  1.00878e-06
 Reference value :  1.00975e-06
 Reference value :  1.01063e-06
 Reference value :  1.01187e-06
 Reference value :  1.01317e-06
 Reference value :  1.01541e-06
 Reference value :  1.01766e-06
 Reference value :  1.01949e-06
 Reference value :  1.02146e-06
 Reference value :  1.02335e-06
 Reference value :  1.02526e-06
 Reference value :  1.02692e-06
 Reference value :  1.02863e-06
 Reference value :  1.03040e-06
 Reference value :  1.03248e-06
 Reference value :  1.03466e-06
 Reference value :  1.03761e-06
 Reference value :  1.04169e-06
 Reference value :  1.04886e-06
 Reference value :  1.06052e-06
 Reference value :  1.08128e-06
 Reference value :  1.11846e-06
 Reference value :  1.18442e-06
 Reference value :  1.25010e-06
 Reference value :  1.25011e-06
 Reference value :  1.25013e-06
 Reference value :  1.25017e-06
 Reference value :  1.25020e-06
 Reference value :  1.25020e-06
 Reference value :  1.25020e-06
 Reference value :  1.25021e-06
 Reference value :  1.25021e-06
 Reference value :  1.25022e-06
 Reference value :  1.25025e-06
 Reference value :  1.25030e-06
 Reference value :  1.25040e-06
 Reference value :  1.25059e-06
 Reference value :  1.25094e-06
 Reference value :  1.25156e-06
 Reference value :  1.25219e-06
 Reference value :  1.25297e-06
 Reference value :  1.25379e-06
 Reference value :  1.25487e-06
 Reference value :  1.25583e-06
 Reference value :  1.25693e-06
 Reference value :  1.25805e-06
 Reference value :  1.25914e-06
 Reference value :  1.26095e-06
 Reference value :  1.26275e-06
 Reference value :  1.26559e-06
 Reference value :  1.26922e-06
 Reference value :  1.27472e-06
 Reference value :  1.28570e-06
 Reference value :  1.30423e-06
 Reference value :  1.33831e-06
 Reference value :  1.40325e-06
 Reference value :  1.50000e-06
 Reference value :  1.50001e-06
 Reference value :  1.50003e-06
 Reference value :  1.50007e-06
 Reference value :  1.50010e-06
 Reference value :  1.50010e-06
 Reference value :  1.50011e-06
 Reference value :  1.50013e-06
 Reference value :  1.50016e-06
 Reference value :  1.50023e-06
 Reference value :  1.50037e-06
 Reference value :  1.50056e-06
 Reference value :  1.50093e-06
 Reference value :  1.50161e-06
 Reference value :  1.50223e-06
 Reference value :  1.50287e-06
 Reference value :  1.50358e-06
 Reference value :  1.50433e-06
 Reference value :  1.50518e-06
 Reference value :  1.50611e-06
 Reference value :  1.50715e-06
 Reference value :  1.50849e-06
 Reference value :  1.50986e-06
 Reference value :  1.51144e-06
 Reference value :  1.51284e-06
 Reference value :  1.51432e-06
 Reference value :  1.51639e-06
 Reference value :  1.51829e-06
 Reference value :  1.52038e-06
 Reference value :  1.52325e-06
 Reference value :  1.52648e-06
 Reference value :  1.53208e-06
 Reference value :  1.54021e-06
 Reference value :  1.55392e-06
 Reference value :  1.57762e-06
 Reference value :  1.61719e-06
 Reference value :  1.69216e-06
 Reference value :  1.75010e-06
 Reference value :  1.75011e-06
 Reference value :  1.75013e-06
 Reference value :  1.75017e-06
 Reference value :  1.75020e-06
 Reference value :  1.75020e-06
 Reference value :  1.75020e-06
 Reference value :  1.75021e-06
 Reference value :  1.75021e-06
 Reference value :  1.75022e-06
 Reference value :  1.75025e-06
 Reference value :  1.75030e-06
 Reference value :  1.75040e-06
 Reference value :  1.75059e-06
 Reference value :  1.75094e-06
 Reference value :  1.75156e-06
 Reference value :  1.75219e-06
 Reference value :  1.75296e-06
 Reference value :  1.75379e-06
 Reference value :  1.75487e-06
 Reference value :  1.75583e-06
 Reference value :  1.75694e-06
 Reference value :  1.75792e-06
 Reference value :  1.75895e-06
 Reference value :  1.76011e-06
 Reference value :  1.76141e-06
 Reference value :  1.76276e-06
 Reference value :  1.76455e-06
 Reference value :  1.76684e-06
 Reference value :  1.76965e-06
 Reference value :  1.77337e-06
 Reference value :  1.77866e-06
 Reference value :  1.78924e-06
 Reference value :  1.80744e-06
 Reference value :  1.84385e-06
 Reference value :  1.91666e-06
 Reference value :  2.00000e-06
 Reference value :  2.00001e-06
 Reference value :  2.00003e-06
 Reference value :  2.00007e-06
 Reference value :  2.00010e-06
 Reference value :  2.00010e-06
 Reference value :  2.00011e-06
 Reference value :  2.00013e-06
 Reference value :  2.00016e-06
 Reference value :  2.00023e-06
 Reference value :  2.00037e-06
 Reference value :  2.00055e-06
 Reference value :  2.00092e-06
 Reference value :  2.00160e-06
 Reference value :  2.00223e-06
 Reference value :  2.00292e-06
 Reference value :  2.00364e-06
 Reference value :  2.00440e-06
 Reference value :  2.00525e-06
 Reference value :  2.00619e-06
 Reference value :  2.00703e-06
 Reference value :  2.00791e-06
 Reference value :  2.00877e-06
 Reference value :  2.00973e-06
 Reference value :  2.01062e-06
 Reference value :  2.01187e-06
 Reference value :  2.01317e-06
 Reference value :  2.01544e-06
 Reference value :  2.01803e-06
 Reference value :  2.01993e-06
 Reference value :  2.02202e-06
 Reference value :  2.02406e-06
 Reference value :  2.02557e-06
 Reference value :  2.02698e-06
 Reference value :  2.02841e-06
 Reference value :  2.03002e-06
 Reference value :  2.03201e-06
 Reference value :  2.03383e-06
 Reference value :  2.03716e-06
 Reference value :  2.04016e-06
 Reference value :  2.04616e-06
 Reference value :  2.05816e-06
 Reference value :  2.07248e-06
 Reference value :  2.10110e-06
 Reference value :  2.14360e-06
 Reference value :  2.20701e-06
 Reference value :  2.25010e-06
 Reference value :  2.25011e-06
 Reference value :  2.25013e-06
 Reference value :  2.25017e-06
 Reference value :  2.25020e-06
 Reference value :  2.25020e-06
 Reference value :  2.25020e-06
 Reference value :  2.25021e-06
 Reference value :  2.25021e-06
 Reference value :  2.25022e-06
 Reference value :  2.25025e-06
 Reference value :  2.25030e-06
 Reference value :  2.25039e-06
 Reference value :  2.25059e-06
 Reference value :  2.25093e-06
 Reference value :  2.25155e-06
 Reference value :  2.25217e-06
 Reference value :  2.25296e-06
 Reference value :  2.25376e-06
 Reference value :  2.25484e-06
 Reference value :  2.25583e-06
 Reference value :  2.25694e-06
 Reference value :  2.25804e-06
 Reference value :  2.25914e-06
 Reference value :  2.26093e-06
 Reference value :  2.26272e-06
 Reference value :  2.26556e-06
 Reference value :  2.26919e-06
 Reference value :  2.27466e-06
 Reference value :  2.28560e-06
 Reference value :  2.30410e-06
 Reference value :  2.33808e-06
 Reference value :  2.40415e-06
 Reference value :  2.46192e-06
 Reference value :  2.50000e-06
 Reference value :  2.50001e-06
 Reference value :  2.50003e-06
 Reference value :  2.50007e-06
 Reference value :  2.50010e-06
 Reference value :  2.50010e-06
 Reference value :  2.50011e-06
 Reference value :  2.50013e-06
 Reference value :  2.50016e-06
 Reference value :  2.50023e-06
 Reference value :  2.50037e-06
 Reference value :  2.50055e-06
 Reference value :  2.50092e-06
 Reference value :  2.50160e-06
 Reference value :  2.50223e-06
 Reference value :  2.50287e-06
 Reference value :  2.50358e-06
 Reference value :  2.50433e-06
 Reference value :  2.50519e-06
 Reference value :  2.50611e-06
 Reference value :  2.50715e-06
 Reference value :  2.50850e-06
 Reference value :  2.50987e-06
 Reference value :  2.51145e-06
 Reference value :  2.51287e-06
 Reference value :  2.51435e-06
 Reference value :  2.51640e-06
 Reference value :  2.51832e-06
 Reference value :  2.52050e-06
 Reference value :  2.52304e-06
 Reference value :  2.52716e-06
 Reference value :  2.53323e-06
 Reference value :  2.54361e-06
 Reference value :  2.56195e-06
 Reference value :  2.59362e-06
 Reference value :  2.65462e-06
 Reference value :  2.75010e-06
 Reference value :  2.75011e-06
 Reference value :  2.75013e-06
 Reference value :  2.75017e-06
 Reference value :  2.75020e-06
 Reference value :  2.75020e-06
 Reference value :  2.75020e-06
 Reference value :  2.75021e-06
 Reference value :  2.75021e-06
 Reference value :  2.75022e-06
 Reference value :  2.75025e-06
 Reference value :  2.75030e-06
 Reference value :  2.75039e-06
 Reference value :  2.75059e-06
 Reference value :  2.75093e-06
 Reference value :  2.75154e-06
 Reference value :  2.75217e-06
 Reference value :  2.75295e-06
 Reference value :  2.75376e-06
 Reference value :  2.75484e-06
 Reference value :  2.75582e-06
 Reference value :  2.75695e-06
 Reference value :  2.75805e-06
 Reference value :  2.75904e-06
 Reference value :  2.76023e-06
 Reference value :  2.76155e-06
 Reference value :  2.76300e-06
 Reference value :  2.76473e-06
 Reference value :  2.76748e-06
 Reference value :  2.77023e-06
 Reference value :  2.77449e-06
 Reference value :  2.78018e-06
 Reference value :  2.79156e-06
 Reference value :  2.81431e-06
 Reference value :  2.85843e-06
 Reference value :  2.94665e-06
 Reference value :  3.00000e-06
 Reference value :  3.00001e-06
 Reference value :  3.00003e-06
 Reference value :  3.00007e-06
 Reference value :  3.00010e-06
 Reference value :  3.00010e-06
 Reference value :  3.00011e-06
 Reference value :  3.00013e-06
 Reference value :  3.00016e-06
 Reference value :  3.00023e-06
 Reference value :  3.00037e-06
 Reference value :  3.00055e-06
 Reference value :  3.00092e-06
 Reference value :  3.00160e-06
 Reference value :  3.00223e-06
 Reference value :  3.00292e-06
 Reference value :  3.00364e-06
 Reference value :  3.00440e-06
 Reference value :  3.00525e-06
 Reference value :  3.00618e-06
 Reference value :  3.00703e-06
 Reference value :  3.00791e-06
 Reference value :  3.00877e-06
 Reference value :  3.00974e-06
 Reference value :  3.01063e-06
 Reference value :  3.01191e-06
 Reference value :  3.01323e-06
 Reference value :  3.01513e-06
 Reference value :  3.01713e-06
 Reference value :  3.01908e-06
 Reference value :  3.02093e-06
 Reference value :  3.02286e-06
 Reference value :  3.02429e-06
 Reference value :  3.02564e-06
 Reference value :  3.02718e-06
 Reference value :  3.02862e-06
 Reference value :  3.03010e-06
 Reference value :  3.03193e-06
 Reference value :  3.03396e-06
 Reference value :  3.03676e-06
 Reference value :  3.04064e-06
 Reference value :  3.04839e-06
 Reference value :  3.06071e-06
 Reference value :  3.08333e-06
 Reference value :  3.11954e-06
 Reference value :  3.18038e-06
 Reference value :  3.22784e-06
 Reference value :  3.25010e-06
 Reference value :  3.25011e-06
 Reference value :  3.25013e-06
 Reference value :  3.25017e-06
 Reference value :  3.25020e-06
 Reference value :  3.25020e-06
 Reference value :  3.25020e-06
 Reference value :  3.25021e-06
 Reference value :  3.25021e-06
 Reference value :  3.25022e-06
 Reference value :  3.25025e-06
 Reference value :  3.25030e-06
 Reference value :  3.25040e-06
 Reference value :  3.25059e-06
 Reference value :  3.25094e-06
 Reference value :  3.25155e-06
 Reference value :  3.25218e-06
 Reference value :  3.25295e-06
 Reference value :  3.25377e-06
 Reference value :  3.25485e-06
 Reference value :  3.25583e-06
 Reference value :  3.25693e-06
 Reference value :  3.25804e-06
 Reference value :  3.25914e-06
 Reference value :  3.26092e-06
 Reference value :  3.26273e-06
 Reference value :  3.26555e-06
 Reference value :  3.26919e-06
 Reference value :  3.27464e-06
 Reference value :  3.28555e-06
 Reference value :  3.30390e-06
 Reference value :  3.33753e-06
 Reference value :  3.40404e-06
 Reference value :  3.50000e-06
 Reference value :  3.50001e-06
 Reference value :  3.50003e-06
 Reference value :  3.50007e-06
 Reference value :  3.50010e-06
 Reference value :  3.50010e-06
 Reference value :  3.50011e-06
 Reference value :  3.50013e-06
 Reference value :  3.50016e-06
 Reference value :  3.50023e-06
 Reference value :  3.50037e-06
 Reference value :  3.50056e-06
 Reference value :  3.50093e-06
 Reference value :  3.50161e-06
 Reference value :  3.50223e-06
 Reference value :  3.50287e-06
 Reference value :  3.50358e-06
 Reference value :  3.50432e-06
 Reference value :  3.50518e-06
 Reference value :  3.50611e-06
 Reference value :  3.50706e-06
 Reference value :  3.50843e-06
 Reference value :  3.50972e-06
 Reference value :  3.51128e-06
 Reference value :  3.51260e-06
 Reference value :  3.51401e-06
 Reference value :  3.51577e-06
 Reference value :  3.51771e-06
 Reference value :  3.51962e-06
 Reference value :  3.52217e-06
 Reference value :  3.52545e-06
 Reference value :  3.53071e-06
 Reference value :  3.53925e-06
 Reference value :  3.55386e-06
 Reference value :  3.58000e-06
 Reference value :  3.62736e-06
 Reference value :  3.72010e-06
 Reference value :  3.75010e-06
 Reference value :  3.75011e-06
 Reference value :  3.75013e-06
 Reference value :  3.75017e-06
 Reference value :  3.75020e-06
 Reference value :  3.75020e-06
 Reference value :  3.75020e-06
 Reference value :  3.75021e-06
 Reference value :  3.75021e-06
 Reference value :  3.75022e-06
 Reference value :  3.75025e-06
 Reference value :  3.75030e-06
 Reference value :  3.75040e-06
 Reference value :  3.75059e-06
 Reference value :  3.75094e-06
 Reference value :  3.75155e-06
 Reference value :  3.75218e-06
 Reference value :  3.75295e-06
 Reference value :  3.75377e-06
 Reference value :  3.75485e-06
 Reference value :  3.75582e-06
 Reference value :  3.75694e-06
 Reference value :  3.75804e-06
 Reference value :  3.75904e-06
 Reference value :  3.76021e-06
 Reference value :  3.76152e-06
 Reference value :  3.76296e-06
 Reference value :  3.76469e-06
 Reference value :  3.76739e-06
 Reference value :  3.77016e-06
 Reference value :  3.77434e-06
 Reference value :  3.77998e-06
 Reference value :  3.79126e-06
 Reference value :  3.81382e-06
 Reference value :  3.85805e-06
 Reference value :  3.94650e-06
 Reference value :  4.00000e-06
 Reference value :  4.00001e-06
 Reference value :  4.00003e-06
 Reference value :  4.00007e-06
 Reference value :  4.00010e-06
 Reference value :  4.00010e-06
 Reference value :  4.00011e-06
 Reference value :  4.00013e-06
 Reference value :  4.00016e-06
 Reference value :  4.00023e-06
 Reference value :  4.00037e-06
 Reference value :  4.00055e-06
 Reference value :  4.00092e-06
 Reference value :  4.00160e-06
 Reference value :  4.00223e-06
 Reference value :  4.00292e-06
 Reference value :  4.00364e-06
 Reference value :  4.00440e-06
 Reference value :  4.00525e-06
 Reference value :  4.00618e-06
 Reference value :  4.00702e-06
 Reference value :  4.00790e-06
 Reference value :  4.00876e-06
 Reference value :  4.00973e-06
 Reference value :  4.01065e-06
 Reference value :  4.01210e-06
 Reference value :  4.01345e-06
 Reference value :  4.01587e-06
 Reference value :  4.01751e-06
 Reference value :  4.01928e-06
 Reference value :  4.02083e-06
 Reference value :  4.02263e-06
 Reference value :  4.02388e-06
 Reference value :  4.02504e-06
 Reference value :  4.02644e-06
 Reference value :  4.02793e-06
 Reference value :  4.02936e-06
 Reference value :  4.03119e-06
 Reference value :  4.03286e-06
 Reference value :  4.03538e-06
 Reference value :  4.03810e-06
 Reference value :  4.04354e-06
 Reference value :  4.05118e-06
 Reference value :  4.06375e-06
 Reference value :  4.08752e-06
 Reference value :  4.12641e-06
 Reference value :  4.15070e-06
 Reference value :  4.16888e-06
 Reference value :  4.19245e-06
 Reference value :  4.22948e-06
 Reference value :  4.25010e-06
 Reference value :  4.25011e-06
 Reference value :  4.25013e-06
 Reference value :  4.25017e-06
 Reference value :  4.25020e-06
 Reference value :  4.25020e-06
 Reference value :  4.25020e-06
 Reference value :  4.25021e-06
 Reference value :  4.25021e-06
 Reference value :  4.25022e-06
 Reference value :  4.25025e-06
 Reference value :  4.25030e-06
 Reference value :  4.25039e-06
 Reference value :  4.25059e-06
 Reference value :  4.25093e-06
 Reference value :  4.25154e-06
 Reference value :  4.25217e-06
 Reference value :  4.25295e-06
 Reference value :  4.25376e-06
 Reference value :  4.25483e-06
 Reference value :  4.25582e-06
 Reference value :  4.25693e-06
 Reference value :  4.25802e-06
 Reference value :  4.25913e-06
 Reference value :  4.26091e-06
 Reference value :  4.26271e-06
 Reference value :  4.26554e-06
 Reference value :  4.26916e-06
 Reference value :  4.27454e-06
 Reference value :  4.28528e-06
 Reference value :  4.30370e-06
 Reference value :  4.33714e-06
 Reference value :  4.40404e-06
 Reference value :  4.50000e-06
 Reference value :  4.50001e-06
 Reference value :  4.50003e-06
 Reference value :  4.50007e-06
 Reference value :  4.50010e-06
 Reference value :  4.50010e-06
 Reference value :  4.50011e-06
 Reference value :  4.50013e-06
 Reference value :  4.50016e-06
 Reference value :  4.50023e-06
 Reference value :  4.50037e-06
 Reference value :  4.50056e-06
 Reference value :  4.50092e-06
 Reference value :  4.50161e-06
 Reference value :  4.50223e-06
 Reference value :  4.50287e-06
 Reference value :  4.50358e-06
 Reference value :  4.50432e-06
 Reference value :  4.50518e-06
 Reference value :  4.50611e-06
 Reference value :  4.50706e-06
 Reference value :  4.50843e-06
 Reference value :  4.50972e-06
 Reference value :  4.51123e-06
 Reference value :  4.51259e-06
 Reference value :  4.51402e-06
 Reference value :  4.51540e-06
 Reference value :  4.51700e-06
 Reference value :  4.51865e-06
 Reference value :  4.52046e-06
 Reference value :  4.52409e-06
 Reference value :  4.53133e-06
 Reference value :  4.54439e-06
 Reference value :  4.57050e-06
 Reference value :  4.62272e-06
 Reference value :  4.72717e-06
 Reference value :  4.75010e-06
 Reference value :  4.75011e-06
 Reference value :  4.75013e-06
 Reference value :  4.75017e-06
 Reference value :  4.75020e-06
 Reference value :  4.75020e-06
 Reference value :  4.75020e-06
 Reference value :  4.75021e-06
 Reference value :  4.75021e-06
 Reference value :  4.75022e-06
 Reference value :  4.75025e-06
 Reference value :  4.75030e-06
 Reference value :  4.75039e-06
 Reference value :  4.75059e-06
 Reference value :  4.75092e-06
 Reference value :  4.75154e-06
 Reference value :  4.75216e-06
 Reference value :  4.75295e-06
 Reference value :  4.75376e-06
 Reference value :  4.75482e-06
 Reference value :  4.75581e-06
 Reference value :  4.75694e-06
 Reference value :  4.75802e-06
 Reference value :  4.75903e-06
 Reference value :  4.76021e-06
 Reference value :  4.76152e-06
 Reference value :  4.76296e-06
 Reference value :  4.76469e-06
 Reference value :  4.76740e-06
 Reference value :  4.77018e-06
 Reference value :  4.77435e-06
 Reference value :  4.78002e-06
 Reference value :  4.79134e-06
 Reference value :  4.81399e-06
 Reference value :  4.85833e-06
 Reference value :  4.94702e-06
 Reference value :  5.00000e-06
 Reference value :  5.00001e-06
 Reference value :  5.00003e-06
 Reference value :  5.00007e-06
 Reference value :  5.00010e-06
 Reference value :  5.00010e-06
 Reference value :  5.00011e-06
 Reference value :  5.00013e-06
 Reference value :  5.00016e-06
 Reference value :  5.00023e-06
 Reference value :  5.00037e-06
 Reference value :  5.00055e-06
 Reference value :  5.00092e-06
 Reference value :  5.00160e-06
 Reference value :  5.00223e-06
 Reference value :  5.00292e-06
 Reference value :  5.00364e-06
 Reference value :  5.00441e-06
 Reference value :  5.00527e-06
 Reference value :  5.00620e-06
 Reference value :  5.00705e-06
 Reference value :  5.00794e-06
 Reference value :  5.00882e-06
 Reference value :  5.00980e-06
 Reference value :  5.01078e-06
 Reference value :  5.01213e-06
 Reference value :  5.01377e-06
 Reference value :  5.01564e-06
 Reference value :  5.01748e-06
 Reference value :  5.01930e-06
 Reference value :  5.02104e-06
 Reference value :  5.02288e-06
 Reference value :  5.02419e-06
 Reference value :  5.02540e-06
 Reference value :  5.02685e-06
 Reference value :  5.02840e-06
 Reference value :  5.02982e-06
 Reference value :  5.03160e-06
 Reference value :  5.03346e-06
 Reference value :  5.03646e-06
 Reference value :  5.03995e-06
 Reference value :  5.04692e-06
 Reference value :  5.05958e-06
 Reference value :  5.07406e-06
 Reference value :  5.08453e-06
 Reference value :  5.09543e-06
 Reference value :  5.10743e-06
 Reference value :  5.12640e-06
 Reference value :  5.14881e-06
 Reference value :  5.17697e-06
 Reference value :  5.21313e-06
 Reference value :  5.24618e-06
 Reference value :  5.25010e-06
 Reference value :  5.25011e-06
 Reference value :  5.25013e-06
 Reference value :  5.25017e-06
 Reference value :  5.25020e-06
 Reference value :  5.25020e-06
 Reference value :  5.25020e-06
 Reference value :  5.25021e-06
 Reference value :  5.25021e-06
 Reference value :  5.25022e-06
 Reference value :  5.25025e-06
 Reference value :  5.25030e-06
 Reference value :  5.25039e-06
 Reference value :  5.25059e-06
 Reference value :  5.25093e-06
 Reference value :  5.25154e-06
 Reference value :  5.25216e-06
 Reference value :  5.25295e-06
 Reference value :  5.25375e-06
 Reference value :  5.25483e-06
 Reference value :  5.25583e-06
 Reference value :  5.25694e-06
 Reference value :  5.25803e-06
 Reference value :  5.25915e-06
 Reference value :  5.26092e-06
 Reference value :  5.26274e-06
 Reference value :  5.26557e-06
 Reference value :  5.26921e-06
 Reference value :  5.27468e-06
 Reference value :  5.28560e-06
 Reference value :  5.30395e-06
 Reference value :  5.33755e-06
 Reference value :  5.40416e-06
 Reference value :  5.50000e-06
 Reference value :  5.50001e-06
 Reference value :  5.50003e-06
 Reference value :  5.50007e-06
 Reference value :  5.50010e-06
 Reference value :  5.50010e-06
 Reference value :  5.50011e-06
 Reference value :  5.50013e-06
 Reference value :  5.50016e-06
 Reference value :  5.50023e-06
 Reference value :  5.50037e-06
 Reference value :  5.50056e-06
 Reference value :  5.50093e-06
 Reference value :  5.50161e-06
 Reference value :  5.50223e-06
 Reference value :  5.50287e-06
 Reference value :  5.50358e-06
 Reference value :  5.50433e-06
 Reference value :  5.50518e-06
 Reference value :  5.50611e-06
 Reference value :  5.50715e-06
 Reference value :  5.50849e-06
 Reference value :  5.50987e-06
 Reference value :  5.51143e-06
 Reference value :  5.51314e-06
 Reference value :  5.51469e-06
 Reference value :  5.51625e-06
 Reference value :  5.51790e-06
 Reference value :  5.51979e-06
 Reference value :  5.52191e-06
 Reference value :  5.52574e-06
 Reference value :  5.53130e-06
 Reference value :  5.54182e-06
 Reference value :  5.56128e-06
 Reference value :  5.59698e-06
 Reference value :  5.66672e-06
 Reference value :  5.75010e-06
 Reference value :  5.75011e-06
 Reference value :  5.75013e-06
 Reference value :  5.75017e-06
 Reference value :  5.75020e-06
 Reference value :  5.75020e-06
 Reference value :  5.75020e-06
 Reference value :  5.75021e-06
 Reference value :  5.75021e-06
 Reference value :  5.75022e-06
 Reference value :  5.75025e-06
 Reference value :  5.75030e-06
 Reference value :  5.75039e-06
 Reference value :  5.75059e-06
 Reference value :  5.75093e-06
 Reference value :  5.75154e-06
 Reference value :  5.75216e-06
 Reference value :  5.75295e-06
 Reference value :  5.75376e-06
 Reference value :  5.75483e-06
 Reference value :  5.75582e-06
 Reference value :  5.75695e-06
 Reference value :  5.75804e-06
 Reference value :  5.75905e-06
 Reference value :  5.76023e-06
 Reference value :  5.76155e-06
 Reference value :  5.76302e-06
 Reference value :  5.76473e-06
 Reference value :  5.76753e-06
 Reference value :  5.77027e-06
 Reference value :  5.77458e-06
 Reference value :  5.78030e-06
 Reference value :  5.79173e-06
 Reference value :  5.81460e-06
 Reference value :  5.85875e-06
 Reference value :  5.94706e-06
 Reference value :  6.00000e-06
 Reference value :  6.00001e-06
 Reference value :  6.00003e-06
 Reference value :  6.00007e-06
 Reference value :  6.00010e-06
 Reference value :  6.00010e-06
 Reference value :  6.00011e-06
 Reference value :  6.00013e-06
 Reference value :  6.00016e-06
 Reference value :  6.00023e-06
 Reference value :  6.00037e-06
 Reference value :  6.00055e-06
 Reference value :  6.00092e-06
 Reference value :  6.00160e-06
 Reference value :  6.00223e-06
 Reference value :  6.00292e-06
 Reference value :  6.00364e-06
 Reference value :  6.00440e-06
 Reference value :  6.00525e-06
 Reference value :  6.00619e-06
 Reference value :  6.00704e-06
 Reference value :  6.00791e-06
 Reference value :  6.00875e-06
 Reference value :  6.00973e-06
 Reference value :  6.01068e-06
 Reference value :  6.01199e-06
 Reference value :  6.01379e-06
 Reference value :  6.01565e-06
 Reference value :  6.01731e-06
 Reference value :  6.01902e-06
 Reference value :  6.02071e-06
 Reference value :  6.02252e-06
 Reference value :  6.02416e-06
 Reference value :  6.02588e-06
 Reference value :  6.02764e-06
 Reference value :  6.02924e-06
 Reference value :  6.03089e-06
 Reference value :  6.03285e-06
 Reference value :  6.03534e-06
 Reference value :  6.03802e-06
 Reference value :  6.04256e-06
 Reference value :  6.04923e-06
 Reference value :  6.05586e-06
 Reference value :  6.06210e-06
 Reference value :  6.07003e-06
 Reference value :  6.08134e-06
 Reference value :  6.10015e-06
 Reference value :  6.13441e-06
 Reference value :  6.19362e-06
 Reference value :  6.25010e-06
 Reference value :  6.25011e-06
 Reference value :  6.25013e-06
 Reference value :  6.25017e-06
 Reference value :  6.25020e-06
 Reference value :  6.25020e-06
 Reference value :  6.25020e-06
 Reference value :  6.25021e-06
 Reference value :  6.25021e-06
 Reference value :  6.25022e-06
 Reference value :  6.25025e-06
 Reference value :  6.25030e-06
 Reference value :  6.25040e-06
 Reference value :  6.25059e-06
 Reference value :  6.25094e-06
 Reference value :  6.25155e-06
 Reference value :  6.25218e-06
 Reference value :  6.25295e-06
 Reference value :  6.25377e-06
 Reference value :  6.25484e-06
 Reference value :  6.25582e-06
 Reference value :  6.25693e-06
 Reference value :  6.25803e-06
 Reference value :  6.25913e-06
 Reference value :  6.26090e-06
 Reference value :  6.26270e-06
 Reference value :  6.26551e-06
 Reference value :  6.26914e-06
 Reference value :  6.27456e-06
 Reference value :  6.28540e-06
 Reference value :  6.30357e-06
 Reference value :  6.33684e-06
 Reference value :  6.40338e-06
 Reference value :  6.50000e-06
 Reference value :  6.50001e-06
 Reference value :  6.50003e-06
 Reference value :  6.50007e-06
 Reference value :  6.50010e-06
 Reference value :  6.50010e-06
 Reference value :  6.50011e-06
 Reference value :  6.50013e-06
 Reference value :  6.50016e-06
 Reference value :  6.50023e-06
 Reference value :  6.50037e-06
 Reference value :  6.50056e-06
 Reference value :  6.50093e-06
 Reference value :  6.50161e-06
 Reference value :  6.50223e-06
 Reference value :  6.50287e-06
 Reference value :  6.50358e-06
 Reference value :  6.50432e-06
 Reference value :  6.50518e-06
 Reference value :  6.50611e-06
 Reference value :  6.50706e-06
 Reference value :  6.50844e-06
 Reference value :  6.50972e-06
 Reference value :  6.51129e-06
 Reference value :  6.51261e-06
 Reference value :  6.51402e-06
 Reference value :  6.51533e-06
 Reference value :  6.51690e-06
 Reference value :  6.51850e-06
 Reference value :  6.52027e-06
 Reference value :  6.52382e-06
 Reference value :  6.53093e-06
 Reference value :  6.54412e-06
 Reference value :  6.57049e-06
 Reference value :  6.62325e-06
 Reference value :  6.72876e-06
 Reference value :  6.75010e-06
 Reference value :  6.75011e-06
 Reference value :  6.75013e-06
 Reference value :  6.75017e-06
 Reference value :  6.75020e-06
 Reference value :  6.75020e-06
 Reference value :  6.75020e-06
 Reference value :  6.75021e-06
 Reference value :  6.75021e-06
 Reference value :  6.75022e-06
 Reference value :  6.75025e-06
 Reference value :  6.75030e-06
 Reference value :  6.75039e-06
 Reference value :  6.75059e-06
 Reference value :  6.75093e-06
 Reference value :  6.75154e-06
 Reference value :  6.75216e-06
 Reference value :  6.75295e-06
 Reference value :  6.75376e-06
 Reference value :  6.75483e-06
 Reference value :  6.75582e-06
 Reference value :  6.75694e-06
 Reference value :  6.75803e-06
 Reference value :  6.75904e-06
 Reference value :  6.76022e-06
 Reference value :  6.76155e-06
 Reference value :  6.76300e-06
 Reference value :  6.76472e-06
 Reference value :  6.76750e-06
 Reference value :  6.77024e-06
 Reference value :  6.77452e-06
 Reference value :  6.78022e-06
 Reference value :  6.79163e-06
 Reference value :  6.81445e-06
 Reference value :  6.85862e-06
 Reference value :  6.94697e-06
 Reference value :  7.00000e-06
 Reference value :  7.00001e-06
 Reference value :  7.00003e-06
 Reference value :  7.00007e-06
 Reference value :  7.00010e-06
 Reference value :  7.00010e-06
 Reference value :  7.00011e-06
 Reference value :  7.00013e-06
 Reference value :  7.00016e-06
 Reference value :  7.00023e-06
 Reference value :  7.00037e-06
 Reference value :  7.00055e-06
 Reference value :  7.00092e-06
 Reference value :  7.00160e-06
 Reference value :  7.00223e-06
 Reference value :  7.00292e-06
 Reference value :  7.00364e-06
 Reference value :  7.00440e-06
 Reference value :  7.00525e-06
 Reference value :  7.00618e-06
 Reference value :  7.00702e-06
 Reference value :  7.00790e-06
 Reference value :  7.00876e-06
 Reference value :  7.00973e-06
 Reference value :  7.01071e-06
 Reference value :  7.01204e-06
 Reference value :  7.01370e-06
 Reference value :  7.01612e-06
 Reference value :  7.01772e-06
 Reference value :  7.01957e-06
 Reference value :  7.02118e-06
 Reference value :  7.02302e-06
 Reference value :  7.02478e-06
 Reference value :  7.02637e-06
 Reference value :  7.02834e-06
 Reference value :  7.03017e-06
 Reference value :  7.03199e-06
 Reference value :  7.03428e-06
 Reference value :  7.03733e-06
 Reference value :  7.04053e-06
 Reference value :  7.04531e-06
 Reference value :  7.05068e-06
 Reference value :  7.05901e-06
 Reference value :  7.07070e-06
 Reference value :  7.09408e-06
 Reference value :  7.12970e-06
 Reference value :  7.19485e-06
 Reference value :  7.25010e-06
 Reference value :  7.25011e-06
 Reference value :  7.25013e-06
 Reference value :  7.25017e-06
 Reference value :  7.25020e-06
 Reference value :  7.25020e-06
 Reference value :  7.25020e-06
 Reference value :  7.25021e-06
 Reference value :  7.25021e-06
 Reference value :  7.25022e-06
 Reference value :  7.25025e-06
 Reference value :  7.25030e-06
 Reference value :  7.25040e-06
 Reference value :  7.25059e-06
 Reference value :  7.25094e-06
 Reference value :  7.25155e-06
 Reference value :  7.25218e-06
 Reference value :  7.25295e-06
 Reference value :  7.25378e-06
 Reference value :  7.25484e-06
 Reference value :  7.25577e-06
 Reference value :  7.25684e-06
 Reference value :  7.25797e-06
 Reference value :  7.25902e-06
 Reference value :  7.26082e-06
 Reference value :  7.26254e-06
 Reference value :  7.26535e-06
 Reference value :  7.26886e-06
 Reference value :  7.27414e-06
 Reference value :  7.28470e-06
 Reference value :  7.30294e-06
 Reference value :  7.33628e-06
 Reference value :  7.40298e-06
 Reference value :  7.50000e-06
 Reference value :  7.50001e-06
 Reference value :  7.50003e-06
 Reference value :  7.50007e-06
 Reference value :  7.50010e-06
 Reference value :  7.50010e-06
 Reference value :  7.50011e-06
 Reference value :  7.50013e-06
 Reference value :  7.50016e-06
 Reference value :  7.50023e-06
 Reference value :  7.50037e-06
 Reference value :  7.50056e-06
 Reference value :  7.50093e-06
 Reference value :  7.50152e-06
 Reference value :  7.50214e-06
 Reference value :  7.50280e-06
 Reference value :  7.50358e-06
 Reference value :  7.50431e-06
 Reference value :  7.50516e-06
 Reference value :  7.50609e-06
 Reference value :  7.50712e-06
 Reference value :  7.50848e-06
 Reference value :  7.50985e-06
 Reference value :  7.51146e-06
 Reference value :  7.51283e-06
 Reference value :  7.51429e-06
 Reference value :  7.51570e-06
 Reference value :  7.51736e-06
 Reference value :  7.51908e-06
 Reference value :  7.52093e-06
 Reference value :  7.52462e-06
 Reference value :  7.53200e-06
 Reference value :  7.54491e-06
 Reference value :  7.57075e-06
 Reference value :  7.62242e-06
 Reference value :  7.72576e-06
 Reference value :  7.75010e-06
 Reference value :  7.75011e-06
 Reference value :  7.75013e-06
 Reference value :  7.75017e-06
 Reference value :  7.75020e-06
 Reference value :  7.75020e-06
 Reference value :  7.75020e-06
 Reference value :  7.75021e-06
 Reference value :  7.75021e-06
 Reference value :  7.75022e-06
 Reference value :  7.75025e-06
 Reference value :  7.75030e-06
 Reference value :  7.75039e-06
 Reference value :  7.75059e-06
 Reference value :  7.75093e-06
 Reference value :  7.75154e-06
 Reference value :  7.75217e-06
 Reference value :  7.75295e-06
 Reference value :  7.75376e-06
 Reference value :  7.75483e-06
 Reference value :  7.75577e-06
 Reference value :  7.75686e-06
 Reference value :  7.75782e-06
 Reference value :  7.75883e-06
 Reference value :  7.75998e-06
 Reference value :  7.76126e-06
 Reference value :  7.76252e-06
 Reference value :  7.76440e-06
 Reference value :  7.76639e-06
 Reference value :  7.76921e-06
 Reference value :  7.77261e-06
 Reference value :  7.77767e-06
 Reference value :  7.78726e-06
 Reference value :  7.80027e-06
 Reference value :  7.82497e-06
 Reference value :  7.87436e-06
 Reference value :  7.96607e-06
 Reference value :  8.00000e-06
 Reference value :  8.00001e-06
 Reference value :  8.00003e-06
 Reference value :  8.00007e-06
 Reference value :  8.00010e-06
 Reference value :  8.00010e-06
 Reference value :  8.00011e-06
 Reference value :  8.00013e-06
 Reference value :  8.00016e-06
 Reference value :  8.00023e-06
 Reference value :  8.00037e-06
 Reference value :  8.00056e-06
 Reference value :  8.00093e-06
 Reference value :  8.00152e-06
 Reference value :  8.00214e-06
 Reference value :  8.00284e-06
 Reference value :  8.00357e-06
 Reference value :  8.00433e-06
 Reference value :  8.00518e-06
 Reference value :  8.00613e-06
 Reference value :  8.00705e-06
 Reference value :  8.00790e-06
 Reference value :  8.00875e-06
 Reference value :  8.00972e-06
 Reference value :  8.01069e-06
 Reference value :  8.01206e-06
 Reference value :  8.01358e-06
 Reference value :  8.01605e-06
 Reference value :  8.01766e-06
 Reference value :  8.01950e-06
 Reference value :  8.02116e-06
 Reference value :  8.02315e-06
 Reference value :  8.02513e-06
 Reference value :  8.02739e-06
 Reference value :  8.02963e-06
 Reference value :  8.03170e-06
 Reference value :  8.03451e-06
 Reference value :  8.03903e-06
 Reference value :  8.04612e-06
 Reference value :  8.05907e-06
 Reference value :  8.07720e-06
 Reference value :  8.11207e-06
 Reference value :  8.17350e-06
 Reference value :  8.25010e-06
 Reference value :  8.25011e-06
 Reference value :  8.25013e-06
 Reference value :  8.25017e-06
 Reference value :  8.25020e-06
 Reference value :  8.25020e-06
 Reference value :  8.25020e-06
 Reference value :  8.25021e-06
 Reference value :  8.25021e-06
 Reference value :  8.25022e-06
 Reference value :  8.25025e-06
 Reference value :  8.25030e-06
 Reference value :  8.25040e-06
 Reference value :  8.25059e-06
 Reference value :  8.25099e-06
 Reference value :  8.25156e-06
 Reference value :  8.25223e-06
 Reference value :  8.25297e-06
 Reference value :  8.25382e-06
 Reference value :  8.25489e-06
 Reference value :  8.25620e-06
 Reference value :  8.25759e-06
 Reference value :  8.25919e-06
 Reference value :  8.26090e-06
 Reference value :  8.26362e-06
 Reference value :  8.26653e-06
 Reference value :  8.27079e-06
 Reference value :  8.27674e-06
 Reference value :  8.28865e-06
 Reference value :  8.31246e-06
 Reference value :  8.36010e-06
 Reference value :  8.45537e-06
 Reference value :  8.50000e-06
 Reference value :  8.50000e-06
 Reference value :  8.50000e-06
 Reference value :  8.50000e-06
 Reference value :  8.50000e-06
 Reference value :  8.50000e-06
 Reference value :  8.50000e-06
 Reference value :  8.50000e-06
 Reference value :  8.50000e-06
 Reference value :  8.50000e-06
 Reference value :  8.50001e-06
 Reference value :  8.50001e-06
 Reference value :  8.50002e-06
 Reference value :  8.50004e-06
 Reference value :  8.50008e-06
 Reference value :  8.50010e-06
 Reference value :  8.50010e-06
 Reference value :  8.50011e-06
 Reference value :  8.50012e-06
 Reference value :  8.50014e-06
 Reference value :  8.50018e-06
 Reference value :  8.50027e-06
 Reference value :  8.50043e-06
 Reference value :  8.50077e-06
 Reference value :  8.50132e-06
 Reference value :  8.50220e-06
 Reference value :  8.50303e-06
 Reference value :  8.50372e-06
 Reference value :  8.50458e-06
 Reference value :  8.50547e-06
 Reference value :  8.50655e-06
 Reference value :  8.50781e-06
 Reference value :  8.50913e-06
 Reference value :  8.51105e-06
 Reference value :  8.51274e-06
 Reference value :  8.51461e-06
 Reference value :  8.51651e-06
 Reference value :  8.51854e-06
 Reference value :  8.52121e-06
 Reference value :  8.52425e-06
 Reference value :  8.53034e-06
 Reference value :  8.54075e-06
 Reference value :  8.55138e-06
 Reference value :  8.55881e-06
 Reference value :  8.56473e-06
 Reference value :  8.57041e-06
 Reference value :  8.57559e-06
 Reference value :  8.58023e-06
 Reference value :  8.58449e-06
 Reference value :  8.58771e-06
 Reference value :  8.59135e-06
 Reference value :  8.59592e-06
 Reference value :  8.60348e-06
 Reference value :  8.61312e-06
 Reference value :  8.62879e-06
 Reference value :  8.65186e-06
 Reference value :  8.69109e-06
 Reference value :  8.75010e-06
 Reference value :  8.75011e-06
 Reference value :  8.75013e-06
 Reference value :  8.75017e-06
 Reference value :  8.75020e-06
 Reference value :  8.75020e-06
 Reference value :  8.75020e-06
 Reference value :  8.75021e-06
 Reference value :  8.75021e-06
 Reference value :  8.75022e-06
 Reference value :  8.75025e-06
 Reference value :  8.75030e-06
 Reference value :  8.75039e-06
 Reference value :  8.75059e-06
 Reference value :  8.75097e-06
 Reference value :  8.75155e-06
 Reference value :  8.75222e-06
 Reference value :  8.75299e-06
 Reference value :  8.75381e-06
 Reference value :  8.75494e-06
 Reference value :  8.75583e-06
 Reference value :  8.75686e-06
 Reference value :  8.75785e-06
 Reference value :  8.75889e-06
 Reference value :  8.76057e-06
 Reference value :  8.76227e-06
 Reference value :  8.76497e-06
 Reference value :  8.76834e-06
 Reference value :  8.77331e-06
 Reference value :  8.78323e-06
 Reference value :  8.80065e-06
 Reference value :  8.83201e-06
 Reference value :  8.89473e-06
 Reference value :  9.00000e-06
 Reference value :  9.00001e-06
 Reference value :  9.00003e-06
 Reference value :  9.00007e-06
 Reference value :  9.00010e-06
 Reference value :  9.00010e-06
 Reference value :  9.00011e-06
 Reference value :  9.00013e-06
 Reference value :  9.00016e-06
 Reference value :  9.00023e-06
 Reference value :  9.00037e-06
 Reference value :  9.00056e-06
 Reference value :  9.00095e-06
 Reference value :  9.00155e-06
 Reference value :  9.00218e-06
 Reference value :  9.00282e-06
 Reference value :  9.00361e-06
 Reference value :  9.00435e-06
 Reference value :  9.00522e-06
 Reference value :  9.00615e-06
 Reference value :  9.00710e-06
 Reference value :  9.00851e-06
 Reference value :  9.00980e-06
 Reference value :  9.01233e-06
 Reference value :  9.01628e-06
 Reference value :  9.01891e-06
 Reference value :  9.02179e-06
 Reference value :  9.02470e-06
 Reference value :  9.02798e-06
 Reference value :  9.03116e-06
 Reference value :  9.03440e-06
 Reference value :  9.03842e-06
 Reference value :  9.04226e-06
 Reference value :  9.04745e-06
 Reference value :  9.05306e-06
 Reference value :  9.06200e-06
 Reference value :  9.07587e-06
 Reference value :  9.10363e-06
 Reference value :  9.14932e-06
 Reference value :  9.23422e-06
 Reference value :  9.25010e-06
 Reference value :  9.25011e-06
 Reference value :  9.25013e-06
 Reference value :  9.25017e-06
 Reference value :  9.25020e-06
 Reference value :  9.25020e-06
 Reference value :  9.25020e-06
 Reference value :  9.25021e-06
 Reference value :  9.25021e-06
 Reference value :  9.25022e-06
 Reference value :  9.25025e-06
 Reference value :  9.25030e-06
 Reference value :  9.25039e-06
 Reference value :  9.25059e-06
 Reference value :  9.25097e-06
 Reference value :  9.25157e-06
 Reference value :  9.25223e-06
 Reference value :  9.25299e-06
 Reference value :  9.25383e-06
 Reference value :  9.25492e-06
 Reference value :  9.25582e-06
 Reference value :  9.25689e-06
 Reference value :  9.25781e-06
 Reference value :  9.25881e-06
 Reference value :  9.25994e-06
 Reference value :  9.26105e-06
 Reference value :  9.26221e-06
 Reference value :  9.26371e-06
 Reference value :  9.26530e-06
 Reference value :  9.26813e-06
 Reference value :  9.27082e-06
 Reference value :  9.27547e-06
 Reference value :  9.28155e-06
 Reference value :  9.29026e-06
 Reference value :  9.30340e-06
 Reference value :  9.32168e-06
 Reference value :  9.34919e-06
 Reference value :  9.38934e-06
 Reference value :  9.45913e-06
 Reference value :  9.50000e-06
 Reference value :  9.50001e-06
 Reference value :  9.50003e-06
 Reference value :  9.50007e-06
 Reference value :  9.50010e-06
 Reference value :  9.50010e-06
 Reference value :  9.50011e-06
 Reference value :  9.50013e-06
 Reference value :  9.50016e-06
 Reference value :  9.50023e-06
 Reference value :  9.50037e-06
 Reference value :  9.50056e-06
 Reference value :  9.50095e-06
 Reference value :  9.50155e-06
 Reference value :  9.50218e-06
 Reference value :  9.50287e-06
 Reference value :  9.50359e-06
 Reference value :  9.50435e-06
 Reference value :  9.50520e-06
 Reference value :  9.50614e-06
 Reference value :  9.50708e-06
 Reference value :  9.50793e-06
 Reference value :  9.50878e-06
 Reference value :  9.50975e-06
 Reference value :  9.51063e-06
 Reference value :  9.51187e-06
 Reference value :  9.51317e-06
 Reference value :  9.51541e-06
 Reference value :  9.51766e-06
 Reference value :  9.51949e-06
 Reference value :  9.52146e-06
 Reference value :  9.52332e-06
 Reference value :  9.52517e-06
 Reference value :  9.52671e-06
 Reference value :  9.52831e-06
 Reference value :  9.53016e-06
 Reference value :  9.53219e-06
 Reference value :  9.53429e-06
 Reference value :  9.53756e-06
 Reference value :  9.54155e-06
 Reference value :  9.54954e-06
 Reference value :  9.56225e-06
 Reference value :  9.58343e-06
 Reference value :  9.62168e-06
 Reference value :  9.68951e-06
 Reference value :  9.75010e-06
 Reference value :  9.75011e-06
 Reference value :  9.75013e-06
 Reference value :  9.75017e-06
 Reference value :  9.75020e-06
 Reference value :  9.75020e-06
 Reference value :  9.75020e-06
 Reference value :  9.75021e-06
 Reference value :  9.75021e-06
 Reference value :  9.75022e-06
 Reference value :  9.75025e-06
 Reference value :  9.75030e-06
 Reference value :  9.75040e-06
 Reference value :  9.75059e-06
 Reference value :  9.75094e-06
 Reference value :  9.75156e-06
 Reference value :  9.75219e-06
 Reference value :  9.75297e-06
 Reference value :  9.75379e-06
 Reference value :  9.75487e-06
 Reference value :  9.75581e-06
 Reference value :  9.75688e-06
 Reference value :  9.75802e-06
 Reference value :  9.75908e-06
 Reference value :  9.76088e-06
 Reference value :  9.76264e-06
 Reference value :  9.76545e-06
 Reference value :  9.76903e-06
 Reference value :  9.77439e-06
 Reference value :  9.78511e-06
 Reference value :  9.80306e-06
 Reference value :  9.83590e-06
 Reference value :  9.90157e-06
 Reference value :  1.00000e-05
 Reference value :  1.00000e-05
 Reference value :  1.00000e-05
 Reference value :  1.00001e-05
 Reference value :  1.00001e-05
 Reference value :  1.00001e-05
 Reference value :  1.00001e-05
 Reference value :  1.00001e-05
 Reference value :  1.00002e-05
 Reference value :  1.00002e-05
 Reference value :  1.00004e-05
 Reference value :  1.00006e-05
 Reference value :  1.00009e-05
 Reference value :  1.00016e-05
 Reference value :  1.00022e-05
 Reference value :  1.00029e-05
 Reference value :  1.00036e-05
 Reference value :  1.00043e-05
 Reference value :  1.00052e-05
 Reference value :  1.00061e-05
 Reference value :  1.00071e-05
 Reference value :  1.00085e-05
 Reference value :  1.00099e-05
 Reference value :  1.00114e-05
 Reference value :  1.00128e-05
 Reference value :  1.00143e-05
 Reference value :  1.00164e-05
 Reference value :  1.00183e-05
 Reference value :  1.00204e-05
 Reference value :  1.00233e-05
 Reference value :  1.00264e-05
 Reference value :  1.00320e-05
 Reference value :  1.00399e-05
 Reference value :  1.00531e-05
 Reference value :  1.00759e-05
 Reference value :  1.01134e-05
 Reference value :  1.01828e-05
 Reference value :  1.02501e-05
 Reference value :  1.02501e-05
 Reference value :  1.02501e-05
 Reference value :  1.02502e-05
 Reference value :  1.02502e-05
 Reference value :  1.02502e-05
 Reference value :  1.02502e-05
 Reference value :  1.02502e-05
 Reference value :  1.02502e-05
 Reference value :  1.02502e-05
 Reference value :  1.02502e-05
 Reference value :  1.02503e-05
 Reference value :  1.02504e-05
 Reference value :  1.02506e-05
 Reference value :  1.02509e-05
 Reference value :  1.02516e-05
 Reference value :  1.02522e-05
 Reference value :  1.02530e-05
 Reference value :  1.02538e-05
 Reference value :  1.02549e-05
 Reference value :  1.02558e-05
 Reference value :  1.02569e-05
 Reference value :  1.02579e-05
 Reference value :  1.02589e-05
 Reference value :  1.02601e-05
 Reference value :  1.02614e-05
 Reference value :  1.02627e-05
 Reference value :  1.02645e-05
 Reference value :  1.02668e-05
 Reference value :  1.02696e-05
 Reference value :  1.02733e-05
 Reference value :  1.02786e-05
 Reference value :  1.02891e-05
 Reference value :  1.03069e-05
 Reference value :  1.03424e-05
 Reference value :  1.04135e-05
 Reference value :  1.05000e-05
 Reference value :  1.05000e-05
 Reference value :  1.05000e-05
 Reference value :  1.05001e-05
 Reference value :  1.05001e-05
 Reference value :  1.05001e-05
 Reference value :  1.05001e-05
 Reference value :  1.05001e-05
 Reference value :  1.05002e-05
 Reference value :  1.05002e-05
 Reference value :  1.05004e-05
 Reference value :  1.05006e-05
 Reference value :  1.05009e-05
 Reference value :  1.05016e-05
 Reference value :  1.05022e-05
 Reference value :  1.05029e-05
 Reference value :  1.05036e-05
 Reference value :  1.05044e-05
 Reference value :  1.05052e-05
 Reference value :  1.05062e-05
 Reference value :  1.05070e-05
 Reference value :  1.05079e-05
 Reference value :  1.05088e-05
 Reference value :  1.05097e-05
 Reference value :  1.05106e-05
 Reference value :  1.05119e-05
 Reference value :  1.05132e-05
 Reference value :  1.05154e-05
 Reference value :  1.05180e-05
 Reference value :  1.05199e-05
 Reference value :  1.05220e-05
 Reference value :  1.05241e-05
 Reference value :  1.05256e-05
 Reference value :  1.05270e-05
 Reference value :  1.05284e-05
 Reference value :  1.05300e-05
 Reference value :  1.05320e-05
 Reference value :  1.05338e-05
 Reference value :  1.05368e-05
 Reference value :  1.05398e-05
 Reference value :  1.05459e-05
 Reference value :  1.05581e-05
 Reference value :  1.05720e-05
 Reference value :  1.05999e-05
 Reference value :  1.06420e-05
 Reference value :  1.07045e-05
 Reference value :  1.07501e-05
 Reference value :  1.07501e-05
 Reference value :  1.07501e-05
 Reference value :  1.07502e-05
 Reference value :  1.07502e-05
 Reference value :  1.07502e-05
 Reference value :  1.07502e-05
 Reference value :  1.07502e-05
 Reference value :  1.07502e-05
 Reference value :  1.07502e-05
 Reference value :  1.07502e-05
 Reference value :  1.07503e-05
 Reference value :  1.07504e-05
 Reference value :  1.07506e-05
 Reference value :  1.07509e-05
 Reference value :  1.07515e-05
 Reference value :  1.07522e-05
 Reference value :  1.07530e-05
 Reference value :  1.07538e-05
 Reference value :  1.07548e-05
 Reference value :  1.07558e-05
 Reference value :  1.07569e-05
 Reference value :  1.07580e-05
 Reference value :  1.07591e-05
 Reference value :  1.07609e-05
 Reference value :  1.07626e-05
 Reference value :  1.07654e-05
 Reference value :  1.07690e-05
 Reference value :  1.07743e-05
 Reference value :  1.07850e-05
 Reference value :  1.08031e-05
 Reference value :  1.08362e-05
 Reference value :  1.09024e-05
 Reference value :  1.09603e-05
 Reference value :  1.10000e-05
 Reference value :  1.10000e-05
 Reference value :  1.10000e-05
 Reference value :  1.10001e-05
 Reference value :  1.10001e-05
 Reference value :  1.10001e-05
 Reference value :  1.10001e-05
 Reference value :  1.10001e-05
 Reference value :  1.10002e-05
 Reference value :  1.10002e-05
 Reference value :  1.10004e-05
 Reference value :  1.10006e-05
 Reference value :  1.10009e-05
 Reference value :  1.10016e-05
 Reference value :  1.10022e-05
 Reference value :  1.10029e-05
 Reference value :  1.10036e-05
 Reference value :  1.10043e-05
 Reference value :  1.10052e-05
 Reference value :  1.10061e-05
 Reference value :  1.10071e-05
 Reference value :  1.10085e-05
 Reference value :  1.10099e-05
 Reference value :  1.10114e-05
 Reference value :  1.10129e-05
 Reference value :  1.10143e-05
 Reference value :  1.10164e-05
 Reference value :  1.10183e-05
 Reference value :  1.10205e-05
 Reference value :  1.10231e-05
 Reference value :  1.10270e-05
 Reference value :  1.10330e-05
 Reference value :  1.10430e-05
 Reference value :  1.10605e-05
 Reference value :  1.10906e-05
 Reference value :  1.11474e-05
 Reference value :  1.12467e-05
 Reference value :  1.12501e-05
 Reference value :  1.12501e-05
 Reference value :  1.12501e-05
 Reference value :  1.12502e-05
 Reference value :  1.12502e-05
 Reference value :  1.12502e-05
 Reference value :  1.12502e-05
 Reference value :  1.12502e-05
 Reference value :  1.12502e-05
 Reference value :  1.12502e-05
 Reference value :  1.12502e-05
 Reference value :  1.12503e-05
 Reference value :  1.12504e-05
 Reference value :  1.12506e-05
 Reference value :  1.12509e-05
 Reference value :  1.12516e-05
 Reference value :  1.12522e-05
 Reference value :  1.12530e-05
 Reference value :  1.12538e-05
 Reference value :  1.12549e-05
 Reference value :  1.12558e-05
 Reference value :  1.12569e-05
 Reference value :  1.12579e-05
 Reference value :  1.12589e-05
 Reference value :  1.12601e-05
 Reference value :  1.12614e-05
 Reference value :  1.12628e-05
 Reference value :  1.12646e-05
 Reference value :  1.12669e-05
 Reference value :  1.12697e-05
 Reference value :  1.12735e-05
 Reference value :  1.12789e-05
 Reference value :  1.12896e-05
 Reference value :  1.13083e-05
 Reference value :  1.13459e-05
 Reference value :  1.14210e-05
 Reference value :  1.15000e-05
 Reference value :  1.15000e-05
 Reference value :  1.15000e-05
 Reference value :  1.15001e-05
 Reference value :  1.15001e-05
 Reference value :  1.15001e-05
 Reference value :  1.15001e-05
 Reference value :  1.15001e-05
 Reference value :  1.15002e-05
 Reference value :  1.15002e-05
 Reference value :  1.15004e-05
 Reference value :  1.15006e-05
 Reference value :  1.15009e-05
 Reference value :  1.15016e-05
 Reference value :  1.15022e-05
 Reference value :  1.15029e-05
 Reference value :  1.15036e-05
 Reference value :  1.15044e-05
 Reference value :  1.15052e-05
 Reference value :  1.15062e-05
 Reference value :  1.15070e-05
 Reference value :  1.15079e-05
 Reference value :  1.15088e-05
 Reference value :  1.15097e-05
 Reference value :  1.15106e-05
 Reference value :  1.15119e-05
 Reference value :  1.15132e-05
 Reference value :  1.15151e-05
 Reference value :  1.15171e-05
 Reference value :  1.15191e-05
 Reference value :  1.15209e-05
 Reference value :  1.15228e-05
 Reference value :  1.15242e-05
 Reference value :  1.15256e-05
 Reference value :  1.15271e-05
 Reference value :  1.15286e-05
 Reference value :  1.15301e-05
 Reference value :  1.15319e-05
 Reference value :  1.15339e-05
 Reference value :  1.15368e-05
 Reference value :  1.15407e-05
 Reference value :  1.15483e-05
 Reference value :  1.15612e-05
 Reference value :  1.15838e-05
 Reference value :  1.16205e-05
 Reference value :  1.16809e-05
 Reference value :  1.17283e-05
 Reference value :  1.17501e-05
 Reference value :  1.17501e-05
 Reference value :  1.17501e-05
 Reference value :  1.17502e-05
 Reference value :  1.17502e-05
 Reference value :  1.17502e-05
 Reference value :  1.17502e-05
 Reference value :  1.17502e-05
 Reference value :  1.17502e-05
 Reference value :  1.17502e-05
 Reference value :  1.17502e-05
 Reference value :  1.17503e-05
 Reference value :  1.17504e-05
 Reference value :  1.17506e-05
 Reference value :  1.17509e-05
 Reference value :  1.17515e-05
 Reference value :  1.17522e-05
 Reference value :  1.17530e-05
 Reference value :  1.17538e-05
 Reference value :  1.17548e-05
 Reference value :  1.17558e-05
 Reference value :  1.17569e-05
 Reference value :  1.17580e-05
 Reference value :  1.17591e-05
 Reference value :  1.17609e-05
 Reference value :  1.17626e-05
 Reference value :  1.17654e-05
 Reference value :  1.17690e-05
 Reference value :  1.17743e-05
 Reference value :  1.17850e-05
 Reference value :  1.18031e-05
 Reference value :  1.18361e-05
 Reference value :  1.19022e-05
 Reference value :  1.20000e-05
 Reference value :  1.20000e-05
 Reference value :  1.20000e-05
 Reference value :  1.20001e-05
 Reference value :  1.20001e-05
 Reference value :  1.20001e-05
 Reference value :  1.20001e-05
 Reference value :  1.20001e-05
 Reference value :  1.20002e-05
 Reference value :  1.20002e-05
 Reference value :  1.20004e-05
 Reference value :  1.20006e-05
 Reference value :  1.20009e-05
 Reference value :  1.20016e-05
 Reference value :  1.20022e-05
 Reference value :  1.20029e-05
 Reference value :  1.20036e-05
 Reference value :  1.20043e-05
 Reference value :  1.20052e-05
 Reference value :  1.20061e-05
 Reference value :  1.20071e-05
 Reference value :  1.20084e-05
 Reference value :  1.20097e-05
 Reference value :  1.20113e-05
 Reference value :  1.20126e-05
 Reference value :  1.20140e-05
 Reference value :  1.20158e-05
 Reference value :  1.20177e-05
 Reference value :  1.20196e-05
 Reference value :  1.20222e-05
 Reference value :  1.20254e-05
 Reference value :  1.20306e-05
 Reference value :  1.20390e-05
 Reference value :  1.20532e-05
 Reference value :  1.20786e-05
 Reference value :  1.21233e-05
 Reference value :  1.22117e-05
 Reference value :  1.22501e-05
 Reference value :  1.22501e-05
 Reference value :  1.22501e-05
 Reference value :  1.22502e-05
 Reference value :  1.22502e-05
 Reference value :  1.22502e-05
 Reference value :  1.22502e-05
 Reference value :  1.22502e-05
 Reference value :  1.22502e-05
 Reference value :  1.22502e-05
 Reference value :  1.22502e-05
 Reference value :  1.22503e-05
 Reference value :  1.22504e-05
 Reference value :  1.22506e-05
 Reference value :  1.22509e-05
 Reference value :  1.22515e-05
 Reference value :  1.22522e-05
 Reference value :  1.22530e-05
 Reference value :  1.22538e-05
 Reference value :  1.22548e-05
 Reference value :  1.22558e-05
 Reference value :  1.22569e-05
 Reference value :  1.22579e-05
 Reference value :  1.22590e-05
 Reference value :  1.22601e-05
 Reference value :  1.22614e-05
 Reference value :  1.22628e-05
 Reference value :  1.22646e-05
 Reference value :  1.22669e-05
 Reference value :  1.22698e-05
 Reference value :  1.22736e-05
 Reference value :  1.22789e-05
 Reference value :  1.22897e-05
 Reference value :  1.23095e-05
 Reference value :  1.23493e-05
 Reference value :  1.24287e-05
 Reference value :  1.25000e-05
 Reference value :  1.25000e-05
 Reference value :  1.25000e-05
 Reference value :  1.25001e-05
 Reference value :  1.25001e-05
 Reference value :  1.25001e-05
 Reference value :  1.25001e-05
 Reference value :  1.25001e-05
 Reference value :  1.25002e-05
 Reference value :  1.25002e-05
 Reference value :  1.25004e-05
 Reference value :  1.25006e-05
 Reference value :  1.25009e-05
 Reference value :  1.25016e-05
 Reference value :  1.25022e-05
 Reference value :  1.25029e-05
 Reference value :  1.25036e-05
 Reference value :  1.25044e-05
 Reference value :  1.25052e-05
 Reference value :  1.25062e-05
 Reference value :  1.25070e-05
 Reference value :  1.25079e-05
 Reference value :  1.25088e-05
 Reference value :  1.25097e-05
 Reference value :  1.25107e-05
 Reference value :  1.25121e-05
 Reference value :  1.25135e-05
 Reference value :  1.25159e-05
 Reference value :  1.25175e-05
 Reference value :  1.25193e-05
 Reference value :  1.25208e-05
 Reference value :  1.25226e-05
 Reference value :  1.25239e-05
 Reference value :  1.25250e-05
 Reference value :  1.25264e-05
 Reference value :  1.25279e-05
 Reference value :  1.25293e-05
 Reference value :  1.25311e-05
 Reference value :  1.25328e-05
 Reference value :  1.25353e-05
 Reference value :  1.25380e-05
 Reference value :  1.25432e-05
 Reference value :  1.25505e-05
 Reference value :  1.25624e-05
 Reference value :  1.25839e-05
 Reference value :  1.26210e-05
 Reference value :  1.26492e-05
 Reference value :  1.26679e-05
 Reference value :  1.26921e-05
 Reference value :  1.27241e-05
 Reference value :  1.27501e-05
 Reference value :  1.27501e-05
 Reference value :  1.27501e-05
 Reference value :  1.27502e-05
 Reference value :  1.27502e-05
 Reference value :  1.27502e-05
 Reference value :  1.27502e-05
 Reference value :  1.27502e-05
 Reference value :  1.27502e-05
 Reference value :  1.27502e-05
 Reference value :  1.27502e-05
 Reference value :  1.27503e-05
 Reference value :  1.27504e-05
 Reference value :  1.27506e-05
 Reference value :  1.27509e-05
 Reference value :  1.27515e-05
 Reference value :  1.27522e-05
 Reference value :  1.27529e-05
 Reference value :  1.27538e-05
 Reference value :  1.27548e-05
 Reference value :  1.27558e-05
 Reference value :  1.27569e-05
 Reference value :  1.27580e-05
 Reference value :  1.27591e-05
 Reference value :  1.27608e-05
 Reference value :  1.27626e-05
 Reference value :  1.27654e-05
 Reference value :  1.27690e-05
 Reference value :  1.27742e-05
 Reference value :  1.27848e-05
 Reference value :  1.28031e-05
 Reference value :  1.28363e-05
 Reference value :  1.29027e-05
 Reference value :  1.30000e-05
 Reference value :  1.30000e-05
 Reference value :  1.30000e-05
 Reference value :  1.30001e-05
 Reference value :  1.30001e-05
 Reference value :  1.30001e-05
 Reference value :  1.30001e-05
 Reference value :  1.30001e-05
 Reference value :  1.30002e-05
 Reference value :  1.30002e-05
 Reference value :  1.30004e-05
 Reference value :  1.30006e-05
 Reference value :  1.30009e-05
 Reference value :  1.30016e-05
 Reference value :  1.30022e-05
 Reference value :  1.30029e-05
 Reference value :  1.30036e-05
 Reference value :  1.30043e-05
 Reference value :  1.30052e-05
 Reference value :  1.30061e-05
 Reference value :  1.30071e-05
 Reference value :  1.30084e-05
 Reference value :  1.30097e-05
 Reference value :  1.30112e-05
 Reference value :  1.30126e-05
 Reference value :  1.30140e-05
 Reference value :  1.30154e-05
 Reference value :  1.30170e-05
 Reference value :  1.30187e-05
 Reference value :  1.30205e-05
 Reference value :  1.30241e-05
 Reference value :  1.30313e-05
 Reference value :  1.30444e-05
 Reference value :  1.30704e-05
 Reference value :  1.31225e-05
 Reference value :  1.32267e-05
 Reference value :  1.32501e-05
 Reference value :  1.32501e-05
 Reference value :  1.32501e-05
 Reference value :  1.32502e-05
 Reference value :  1.32502e-05
 Reference value :  1.32502e-05
 Reference value :  1.32502e-05
 Reference value :  1.32502e-05
 Reference value :  1.32502e-05
 Reference value :  1.32502e-05
 Reference value :  1.32502e-05
 Reference value :  1.32503e-05
 Reference value :  1.32504e-05
 Reference value :  1.32506e-05
 Reference value :  1.32509e-05
 Reference value :  1.32515e-05
 Reference value :  1.32522e-05
 Reference value :  1.32529e-05
 Reference value :  1.32538e-05
 Reference value :  1.32548e-05
 Reference value :  1.32558e-05
 Reference value :  1.32569e-05
 Reference value :  1.32580e-05
 Reference value :  1.32590e-05
 Reference value :  1.32602e-05
 Reference value :  1.32615e-05
 Reference value :  1.32629e-05
 Reference value :  1.32647e-05
 Reference value :  1.32674e-05
 Reference value :  1.32701e-05
 Reference value :  1.32743e-05
 Reference value :  1.32799e-05
 Reference value :  1.32912e-05
 Reference value :  1.33138e-05
 Reference value :  1.33582e-05
 Reference value :  1.34471e-05
 Reference value :  1.35000e-05
 Reference value :  1.35000e-05
 Reference value :  1.35000e-05
 Reference value :  1.35001e-05
 Reference value :  1.35001e-05
 Reference value :  1.35001e-05
 Reference value :  1.35001e-05
 Reference value :  1.35001e-05
 Reference value :  1.35002e-05
 Reference value :  1.35002e-05
 Reference value :  1.35004e-05
 Reference value :  1.35006e-05
 Reference value :  1.35009e-05
 Reference value :  1.35016e-05
 Reference value :  1.35022e-05
 Reference value :  1.35029e-05
 Reference value :  1.35036e-05
 Reference value :  1.35044e-05
 Reference value :  1.35053e-05
 Reference value :  1.35062e-05
 Reference value :  1.35071e-05
 Reference value :  1.35079e-05
 Reference value :  1.35088e-05
 Reference value :  1.35098e-05
 Reference value :  1.35108e-05
 Reference value :  1.35121e-05
 Reference value :  1.35138e-05
 Reference value :  1.35156e-05
 Reference value :  1.35175e-05
 Reference value :  1.35193e-05
 Reference value :  1.35210e-05
 Reference value :  1.35229e-05
 Reference value :  1.35242e-05
 Reference value :  1.35254e-05
 Reference value :  1.35268e-05
 Reference value :  1.35284e-05
 Reference value :  1.35298e-05
 Reference value :  1.35315e-05
 Reference value :  1.35334e-05
 Reference value :  1.35364e-05
 Reference value :  1.35398e-05
 Reference value :  1.35465e-05
 Reference value :  1.35588e-05
 Reference value :  1.35738e-05
 Reference value :  1.35845e-05
 Reference value :  1.35953e-05
 Reference value :  1.36073e-05
 Reference value :  1.36261e-05
 Reference value :  1.36508e-05
 Reference value :  1.36756e-05
 Reference value :  1.37030e-05
 Reference value :  1.37363e-05
 Reference value :  1.37501e-05
 Reference value :  1.37501e-05
 Reference value :  1.37501e-05
 Reference value :  1.37502e-05
 Reference value :  1.37502e-05
 Reference value :  1.37502e-05
 Reference value :  1.37502e-05
 Reference value :  1.37502e-05
 Reference value :  1.37502e-05
 Reference value :  1.37502e-05
 Reference value :  1.37502e-05
 Reference value :  1.37503e-05
 Reference value :  1.37504e-05
 Reference value :  1.37506e-05
 Reference value :  1.37509e-05
 Reference value :  1.37515e-05
 Reference value :  1.37522e-05
 Reference value :  1.37529e-05
 Reference value :  1.37538e-05
 Reference value :  1.37548e-05
 Reference value :  1.37558e-05
 Reference value :  1.37569e-05
 Reference value :  1.37580e-05
 Reference value :  1.37591e-05
 Reference value :  1.37609e-05
 Reference value :  1.37626e-05
 Reference value :  1.37654e-05
 Reference value :  1.37690e-05
 Reference value :  1.37743e-05
 Reference value :  1.37850e-05
 Reference value :  1.38032e-05
 Reference value :  1.38365e-05
 Reference value :  1.39029e-05
 Reference value :  1.40000e-05
 Reference value :  1.40000e-05
 Reference value :  1.40000e-05
 Reference value :  1.40001e-05
 Reference value :  1.40001e-05
 Reference value :  1.40001e-05
 Reference value :  1.40001e-05
 Reference value :  1.40001e-05
 Reference value :  1.40002e-05
 Reference value :  1.40002e-05
 Reference value :  1.40004e-05
 Reference value :  1.40006e-05
 Reference value :  1.40009e-05
 Reference value :  1.40016e-05
 Reference value :  1.40022e-05
 Reference value :  1.40029e-05
 Reference value :  1.40036e-05
 Reference value :  1.40043e-05
 Reference value :  1.40052e-05
 Reference value :  1.40061e-05
 Reference value :  1.40071e-05
 Reference value :  1.40085e-05
 Reference value :  1.40099e-05
 Reference value :  1.40114e-05
 Reference value :  1.40131e-05
 Reference value :  1.40147e-05
 Reference value :  1.40162e-05
 Reference value :  1.40179e-05
 Reference value :  1.40198e-05
 Reference value :  1.40219e-05
 Reference value :  1.40257e-05
 Reference value :  1.40312e-05
 Reference value :  1.40417e-05
 Reference value :  1.40611e-05
 Reference value :  1.40966e-05
 Reference value :  1.41659e-05
 Reference value :  1.42501e-05
 Reference value :  1.42501e-05
 Reference value :  1.42501e-05
 Reference value :  1.42502e-05
 Reference value :  1.42502e-05
 Reference value :  1.42502e-05
 Reference value :  1.42502e-05
 Reference value :  1.42502e-05
 Reference value :  1.42502e-05
 Reference value :  1.42502e-05
 Reference value :  1.42502e-05
 Reference value :  1.42503e-05
 Reference value :  1.42504e-05
 Reference value :  1.42506e-05
 Reference value :  1.42509e-05
 Reference value :  1.42515e-05
 Reference value :  1.42522e-05
 Reference value :  1.42529e-05
 Reference value :  1.42538e-05
 Reference value :  1.42548e-05
 Reference value :  1.42558e-05
 Reference value :  1.42569e-05
 Reference value :  1.42580e-05
 Reference value :  1.42590e-05
 Reference value :  1.42602e-05
 Reference value :  1.42615e-05
 Reference value :  1.42630e-05
 Reference value :  1.42647e-05
 Reference value :  1.42675e-05
 Reference value :  1.42702e-05
 Reference value :  1.42745e-05
 Reference value :  1.42802e-05
 Reference value :  1.42916e-05
 Reference value :  1.43144e-05
 Reference value :  1.43586e-05
 Reference value :  1.44469e-05
 Reference value :  1.45000e-05
 Reference value :  1.45000e-05
 Reference value :  1.45000e-05
 Reference value :  1.45001e-05
 Reference value :  1.45001e-05
 Reference value :  1.45001e-05
 Reference value :  1.45001e-05
 Reference value :  1.45001e-05
 Reference value :  1.45002e-05
 Reference value :  1.45002e-05
 Reference value :  1.45004e-05
 Reference value :  1.45006e-05
 Reference value :  1.45009e-05
 Reference value :  1.45016e-05
 Reference value :  1.45022e-05
 Reference value :  1.45029e-05
 Reference value :  1.45036e-05
 Reference value :  1.45044e-05
 Reference value :  1.45052e-05
 Reference value :  1.45062e-05
 Reference value :  1.45070e-05
 Reference value :  1.45079e-05
 Reference value :  1.45087e-05
 Reference value :  1.45097e-05
 Reference value :  1.45107e-05
 Reference value :  1.45120e-05
 Reference value :  1.45138e-05
 Reference value :  1.45156e-05
 Reference value :  1.45173e-05
 Reference value :  1.45190e-05
 Reference value :  1.45207e-05
 Reference value :  1.45225e-05
 Reference value :  1.45242e-05
 Reference value :  1.45259e-05
 Reference value :  1.45276e-05
 Reference value :  1.45292e-05
 Reference value :  1.45309e-05
 Reference value :  1.45328e-05
 Reference value :  1.45353e-05
 Reference value :  1.45380e-05
 Reference value :  1.45425e-05
 Reference value :  1.45491e-05
 Reference value :  1.45558e-05
 Reference value :  1.45620e-05
 Reference value :  1.45699e-05
 Reference value :  1.45812e-05
 Reference value :  1.45999e-05
 Reference value :  1.46339e-05
 Reference value :  1.46918e-05
 Reference value :  1.47501e-05
 Reference value :  1.47501e-05
 Reference value :  1.47501e-05
 Reference value :  1.47502e-05
 Reference value :  1.47502e-05
 Reference value :  1.47502e-05
 Reference value :  1.47502e-05
 Reference value :  1.47502e-05
 Reference value :  1.47502e-05
 Reference value :  1.47502e-05
 Reference value :  1.47502e-05
 Reference value :  1.47503e-05
 Reference value :  1.47504e-05
 Reference value :  1.47506e-05
 Reference value :  1.47509e-05
 Reference value :  1.47515e-05
 Reference value :  1.47522e-05
 Reference value :  1.47530e-05
 Reference value :  1.47538e-05
 Reference value :  1.47548e-05
 Reference value :  1.47558e-05
 Reference value :  1.47569e-05
 Reference value :  1.47580e-05
 Reference value :  1.47591e-05
 Reference value :  1.47608e-05
 Reference value :  1.47626e-05
 Reference value :  1.47654e-05
 Reference value :  1.47689e-05
 Reference value :  1.47743e-05
 Reference value :  1.47849e-05
 Reference value :  1.48030e-05
 Reference value :  1.48361e-05
 Reference value :  1.49024e-05
 Reference value :  1.50000e-05
 Reference value :  1.50000e-05
 Reference value :  1.50000e-05
 Reference value :  1.50001e-05
 Reference value :  1.50001e-05
 Reference value :  1.50001e-05
 Reference value :  1.50001e-05
 Reference value :  1.50001e-05
 Reference value :  1.50002e-05
 Reference value :  1.50002e-05
 Reference value :  1.50004e-05
 Reference value :  1.50006e-05
 Reference value :  1.50009e-05
 Reference value :  1.50016e-05
 Reference value :  1.50022e-05
 Reference value :  1.50029e-05
 Reference value :  1.50036e-05
 Reference value :  1.50043e-05
 Reference value :  1.50052e-05
 Reference value :  1.50061e-05
 Reference value :  1.50071e-05
 Reference value :  1.50084e-05
 Reference value :  1.50097e-05
 Reference value :  1.50113e-05
 Reference value :  1.50126e-05
 Reference value :  1.50140e-05
 Reference value :  1.50153e-05
 Reference value :  1.50169e-05
 Reference value :  1.50185e-05
 Reference value :  1.50203e-05
 Reference value :  1.50238e-05
 Reference value :  1.50309e-05
 Reference value :  1.50441e-05
 Reference value :  1.50705e-05
 Reference value :  1.51232e-05
 Reference value :  1.52286e-05
 Reference value :  1.52501e-05
 Reference value :  1.52501e-05
 Reference value :  1.52501e-05
 Reference value :  1.52502e-05
 Reference value :  1.52502e-05
 Reference value :  1.52502e-05
 Reference value :  1.52502e-05
 Reference value :  1.52502e-05
 Reference value :  1.52502e-05
 Reference value :  1.52502e-05
 Reference value :  1.52502e-05
 Reference value :  1.52503e-05
 Reference value :  1.52504e-05
 Reference value :  1.52506e-05
 Reference value :  1.52509e-05
 Reference value :  1.52515e-05
 Reference value :  1.52522e-05
 Reference value :  1.52529e-05
 Reference value :  1.52538e-05
 Reference value :  1.52548e-05
 Reference value :  1.52558e-05
 Reference value :  1.52569e-05
 Reference value :  1.52580e-05
 Reference value :  1.52590e-05
 Reference value :  1.52602e-05
 Reference value :  1.52615e-05
 Reference value :  1.52630e-05
 Reference value :  1.52647e-05
 Reference value :  1.52675e-05
 Reference value :  1.52702e-05
 Reference value :  1.52745e-05
 Reference value :  1.52801e-05
 Reference value :  1.52915e-05
 Reference value :  1.53143e-05
 Reference value :  1.53585e-05
 Reference value :  1.54469e-05
 Reference value :  1.55000e-05
 Reference value :  1.55008e-05
 Reference value :  1.55023e-05
 Reference value :  1.55031e-05
 Reference value :  1.55038e-05
 Reference value :  1.55048e-05
 Reference value :  1.55058e-05
 Reference value :  1.55067e-05
 Reference value :  1.55076e-05
 Reference value :  1.55086e-05
 Reference value :  1.55096e-05
 Reference value :  1.55106e-05
 Reference value :  1.55120e-05
 Reference value :  1.55136e-05
 Reference value :  1.55162e-05
 Reference value :  1.55179e-05
 Reference value :  1.55198e-05
 Reference value :  1.55214e-05
 Reference value :  1.55233e-05
 Reference value :  1.55247e-05
 Reference value :  1.55261e-05
 Reference value :  1.55278e-05
 Reference value :  1.55293e-05
 Reference value :  1.55308e-05
 Reference value :  1.55327e-05
 Reference value :  1.55351e-05
 Reference value :  1.55377e-05
 Reference value :  1.55420e-05
 Reference value :  1.55463e-05
 Reference value :  1.55528e-05
 Reference value :  1.55606e-05
 Reference value :  1.55762e-05
 Reference value :  1.55995e-05
 Reference value :  1.56429e-05
 Reference value :  1.57169e-05
 Reference value :  1.57501e-05
 Reference value :  1.57501e-05
 Reference value :  1.57501e-05
 Reference value :  1.57502e-05
 Reference value :  1.57502e-05
 Reference value :  1.57502e-05
 Reference value :  1.57502e-05
 Reference value :  1.57502e-05
 Reference value :  1.57502e-05
 Reference value :  1.57502e-05
 Reference value :  1.57502e-05
 Reference value :  1.57503e-05
 Reference value :  1.57504e-05
 Reference value :  1.57506e-05
 Reference value :  1.57509e-05
 Reference value :  1.57515e-05
 Reference value :  1.57522e-05
 Reference value :  1.57530e-05
 Reference value :  1.57538e-05
 Reference value :  1.57549e-05
 Reference value :  1.57558e-05
 Reference value :  1.57568e-05
 Reference value :  1.57578e-05
 Reference value :  1.57589e-05
 Reference value :  1.57606e-05
 Reference value :  1.57623e-05
 Reference value :  1.57650e-05
 Reference value :  1.57684e-05
 Reference value :  1.57734e-05
 Reference value :  1.57835e-05
[...]
 Reference value :  1.31759e-04
 Reference value :  1.31761e-04
 Reference value :  1.31763e-04
 Reference value :  1.31766e-04
 Reference value :  1.31769e-04
 Reference value :  1.31775e-04
 Reference value :  1.31785e-04
 Reference value :  1.31804e-04
 Reference value :  1.31837e-04
 Reference value :  1.31903e-04
 Reference value :  1.32000e-04
 Reference value :  1.32000e-04
 Reference value :  1.32000e-04
 Reference value :  1.32000e-04
 Reference value :  1.32000e-04
 Reference value :  1.32000e-04
 Reference value :  1.32000e-04
 Reference value :  1.32000e-04
 Reference value :  1.32000e-04
 Reference value :  1.32000e-04
 Reference value :  1.32000e-04
 Reference value :  1.32001e-04
 Reference value :  1.32001e-04
 Reference value :  1.32002e-04
 Reference value :  1.32002e-04
 Reference value :  1.32003e-04
 Reference value :  1.32004e-04
 Reference value :  1.32004e-04
 Reference value :  1.32005e-04
 Reference value :  1.32006e-04
 Reference value :  1.32007e-04
 Reference value :  1.32008e-04
 Reference value :  1.32010e-04
 Reference value :  1.32011e-04
 Reference value :  1.32013e-04
 Reference value :  1.32014e-04
 Reference value :  1.32015e-04
 Reference value :  1.32017e-04
 Reference value :  1.32019e-04
 Reference value :  1.32020e-04
 Reference value :  1.32024e-04
 Reference value :  1.32031e-04
 Reference value :  1.32044e-04
 Reference value :  1.32070e-04
 Reference value :  1.32123e-04
 Reference value :  1.32227e-04
 Reference value :  1.32250e-04
 Reference value :  1.32250e-04
 Reference value :  1.32250e-04
 Reference value :  1.32250e-04
 Reference value :  1.32250e-04
 Reference value :  1.32250e-04
 Reference value :  1.32250e-04
 Reference value :  1.32250e-04
 Reference value :  1.32250e-04
 Reference value :  1.32250e-04
 Reference value :  1.32250e-04
 Reference value :  1.32250e-04
 Reference value :  1.32250e-04
 Reference value :  1.32251e-04
 Reference value :  1.32251e-04
 Reference value :  1.32252e-04
 Reference value :  1.32252e-04
 Reference value :  1.32253e-04
 Reference value :  1.32254e-04
 Reference value :  1.32255e-04
 Reference value :  1.32256e-04
 Reference value :  1.32257e-04
 Reference value :  1.32258e-04
 Reference value :  1.32259e-04
 Reference value :  1.32260e-04
 Reference value :  1.32262e-04
 Reference value :  1.32263e-04
 Reference value :  1.32265e-04
 Reference value :  1.32267e-04
 Reference value :  1.32270e-04
 Reference value :  1.32274e-04
 Reference value :  1.32280e-04
 Reference value :  1.32291e-04
 Reference value :  1.32314e-04
 Reference value :  1.32358e-04
 Reference value :  1.32447e-04
 Reference value :  1.32500e-04
 Reference value :  1.32500e-04
 Reference value :  1.32500e-04
 Reference value :  1.32500e-04
 Reference value :  1.32500e-04
 Reference value :  1.32500e-04
 Reference value :  1.32500e-04
 Reference value :  1.32500e-04
 Reference value :  1.32500e-04
 Reference value :  1.32500e-04
 Reference value :  1.32500e-04
 Reference value :  1.32501e-04
 Reference value :  1.32501e-04
 Reference value :  1.32502e-04
 Reference value :  1.32502e-04
 Reference value :  1.32503e-04
 Reference value :  1.32504e-04
 Reference value :  1.32504e-04
 Reference value :  1.32505e-04
 Reference value :  1.32506e-04
 Reference value :  1.32507e-04
 Reference value :  1.32508e-04
 Reference value :  1.32509e-04
 Reference value :  1.32510e-04
 Reference value :  1.32511e-04
 Reference value :  1.32512e-04
 Reference value :  1.32514e-04
 Reference value :  1.32516e-04
 Reference value :  1.32517e-04
 Reference value :  1.32519e-04
 Reference value :  1.32521e-04
 Reference value :  1.32523e-04
 Reference value :  1.32524e-04
 Reference value :  1.32525e-04
 Reference value :  1.32527e-04
 Reference value :  1.32528e-04
 Reference value :  1.32530e-04
 Reference value :  1.32532e-04
 Reference value :  1.32533e-04
 Reference value :  1.32536e-04
 Reference value :  1.32540e-04
 Reference value :  1.32547e-04
 Reference value :  1.32559e-04
 Reference value :  1.32574e-04
 Reference value :  1.32584e-04
 Reference value :  1.32595e-04
 Reference value :  1.32607e-04
 Reference value :  1.32626e-04
 Reference value :  1.32652e-04
 Reference value :  1.32697e-04
 Reference value :  1.32750e-04
 Reference value :  1.32750e-04
 Reference value :  1.32750e-04
 Reference value :  1.32750e-04
 Reference value :  1.32750e-04
 Reference value :  1.32750e-04
 Reference value :  1.32750e-04
 Reference value :  1.32750e-04
 Reference value :  1.32750e-04
 Reference value :  1.32750e-04
 Reference value :  1.32750e-04
 Reference value :  1.32750e-04
 Reference value :  1.32750e-04
 Reference value :  1.32751e-04
 Reference value :  1.32751e-04
 Reference value :  1.32752e-04
 Reference value :  1.32752e-04
 Reference value :  1.32753e-04
 Reference value :  1.32754e-04
 Reference value :  1.32755e-04
 Reference value :  1.32756e-04
 Reference value :  1.32757e-04
 Reference value :  1.32758e-04
 Reference value :  1.32759e-04
 Reference value :  1.32761e-04
 Reference value :  1.32763e-04
 Reference value :  1.32766e-04
 Reference value :  1.32769e-04
 Reference value :  1.32775e-04
 Reference value :  1.32786e-04
 Reference value :  1.32804e-04
 Reference value :  1.32837e-04
 Reference value :  1.32903e-04
 Reference value :  1.33000e-04
 Reference value :  1.33000e-04
 Reference value :  1.33000e-04
 Reference value :  1.33000e-04
 Reference value :  1.33000e-04
 Reference value :  1.33000e-04
 Reference value :  1.33000e-04
 Reference value :  1.33000e-04
 Reference value :  1.33000e-04
 Reference value :  1.33000e-04
 Reference value :  1.33000e-04
 Reference value :  1.33001e-04
 Reference value :  1.33001e-04
 Reference value :  1.33002e-04
 Reference value :  1.33002e-04
 Reference value :  1.33003e-04
 Reference value :  1.33004e-04
 Reference value :  1.33004e-04
 Reference value :  1.33005e-04
 Reference value :  1.33006e-04
 Reference value :  1.33007e-04
 Reference value :  1.33008e-04
 Reference value :  1.33010e-04
 Reference value :  1.33011e-04
 Reference value :  1.33013e-04
 Reference value :  1.33015e-04
 Reference value :  1.33016e-04
 Reference value :  1.33018e-04
 Reference value :  1.33020e-04
 Reference value :  1.33022e-04
 Reference value :  1.33026e-04
 Reference value :  1.33031e-04
 Reference value :  1.33042e-04
 Reference value :  1.33061e-04
 Reference value :  1.33097e-04
 Reference value :  1.33165e-04
 Reference value :  1.33250e-04
 Reference value :  1.33250e-04
 Reference value :  1.33250e-04
 Reference value :  1.33250e-04
 Reference value :  1.33250e-04
 Reference value :  1.33250e-04
 Reference value :  1.33250e-04
 Reference value :  1.33250e-04
 Reference value :  1.33250e-04
 Reference value :  1.33250e-04
 Reference value :  1.33250e-04
 Reference value :  1.33250e-04
 Reference value :  1.33250e-04
 Reference value :  1.33251e-04
 Reference value :  1.33251e-04
 Reference value :  1.33252e-04
 Reference value :  1.33252e-04
 Reference value :  1.33253e-04
 Reference value :  1.33254e-04
 Reference value :  1.33255e-04
 Reference value :  1.33256e-04
 Reference value :  1.33257e-04
 Reference value :  1.33258e-04
 Reference value :  1.33259e-04
 Reference value :  1.33260e-04
 Reference value :  1.33262e-04
 Reference value :  1.33263e-04
 Reference value :  1.33265e-04
 Reference value :  1.33268e-04
 Reference value :  1.33270e-04
 Reference value :  1.33275e-04
 Reference value :  1.33280e-04
 Reference value :  1.33292e-04
 Reference value :  1.33315e-04
 Reference value :  1.33359e-04
 Reference value :  1.33447e-04
 Reference value :  1.33500e-04
 Reference value :  1.33500e-04
 Reference value :  1.33500e-04
 Reference value :  1.33500e-04
 Reference value :  1.33500e-04
 Reference value :  1.33500e-04
 Reference value :  1.33500e-04
 Reference value :  1.33500e-04
 Reference value :  1.33500e-04
 Reference value :  1.33500e-04
 Reference value :  1.33500e-04
 Reference value :  1.33501e-04
 Reference value :  1.33501e-04
 Reference value :  1.33502e-04
 Reference value :  1.33502e-04
 Reference value :  1.33503e-04
 Reference value :  1.33504e-04
 Reference value :  1.33504e-04
 Reference value :  1.33505e-04
 Reference value :  1.33506e-04
 Reference value :  1.33507e-04
 Reference value :  1.33508e-04
 Reference value :  1.33509e-04
 Reference value :  1.33510e-04
 Reference value :  1.33511e-04
 Reference value :  1.33512e-04
 Reference value :  1.33514e-04
 Reference value :  1.33516e-04
 Reference value :  1.33517e-04
 Reference value :  1.33519e-04
 Reference value :  1.33521e-04
 Reference value :  1.33523e-04
 Reference value :  1.33524e-04
 Reference value :  1.33526e-04
 Reference value :  1.33528e-04
 Reference value :  1.33529e-04
 Reference value :  1.33531e-04
 Reference value :  1.33533e-04
 Reference value :  1.33535e-04
 Reference value :  1.33538e-04
 Reference value :  1.33543e-04
 Reference value :  1.33549e-04
 Reference value :  1.33556e-04
 Reference value :  1.33562e-04
 Reference value :  1.33570e-04
 Reference value :  1.33581e-04
 Reference value :  1.33600e-04
 Reference value :  1.33634e-04
 Reference value :  1.33694e-04
 Reference value :  1.33750e-04
 Reference value :  1.33750e-04
 Reference value :  1.33750e-04
 Reference value :  1.33750e-04
 Reference value :  1.33750e-04
 Reference value :  1.33750e-04
 Reference value :  1.33750e-04
 Reference value :  1.33750e-04
 Reference value :  1.33750e-04
 Reference value :  1.33750e-04
 Reference value :  1.33750e-04
 Reference value :  1.33750e-04
 Reference value :  1.33750e-04
 Reference value :  1.33751e-04
 Reference value :  1.33751e-04
 Reference value :  1.33752e-04
 Reference value :  1.33752e-04
 Reference value :  1.33753e-04
 Reference value :  1.33754e-04
 Reference value :  1.33755e-04
 Reference value :  1.33756e-04
 Reference value :  1.33757e-04
 Reference value :  1.33758e-04
 Reference value :  1.33759e-04
 Reference value :  1.33761e-04
 Reference value :  1.33763e-04
 Reference value :  1.33766e-04
 Reference value :  1.33769e-04
 Reference value :  1.33775e-04
 Reference value :  1.33785e-04
 Reference value :  1.33804e-04
 Reference value :  1.33837e-04
 Reference value :  1.33903e-04
 Reference value :  1.34000e-04
 Reference value :  1.34000e-04
 Reference value :  1.34000e-04
 Reference value :  1.34000e-04
 Reference value :  1.34000e-04
 Reference value :  1.34000e-04
 Reference value :  1.34000e-04
 Reference value :  1.34000e-04
 Reference value :  1.34000e-04
 Reference value :  1.34000e-04
 Reference value :  1.34000e-04
 Reference value :  1.34001e-04
 Reference value :  1.34001e-04
 Reference value :  1.34002e-04
 Reference value :  1.34002e-04
 Reference value :  1.34003e-04
 Reference value :  1.34004e-04
 Reference value :  1.34004e-04
 Reference value :  1.34005e-04
 Reference value :  1.34006e-04
 Reference value :  1.34007e-04
 Reference value :  1.34008e-04
 Reference value :  1.34010e-04
 Reference value :  1.34011e-04
 Reference value :  1.34013e-04
 Reference value :  1.34014e-04
 Reference value :  1.34015e-04
 Reference value :  1.34017e-04
 Reference value :  1.34018e-04
 Reference value :  1.34020e-04
 Reference value :  1.34024e-04
 Reference value :  1.34031e-04
 Reference value :  1.34044e-04
 Reference value :  1.34070e-04
 Reference value :  1.34123e-04
 Reference value :  1.34229e-04
 Reference value :  1.34250e-04
 Reference value :  1.34250e-04
 Reference value :  1.34250e-04
 Reference value :  1.34250e-04
 Reference value :  1.34250e-04
 Reference value :  1.34250e-04
 Reference value :  1.34250e-04
 Reference value :  1.34250e-04
 Reference value :  1.34250e-04
 Reference value :  1.34250e-04
 Reference value :  1.34250e-04
 Reference value :  1.34250e-04
 Reference value :  1.34250e-04
 Reference value :  1.34251e-04
 Reference value :  1.34251e-04
 Reference value :  1.34252e-04
 Reference value :  1.34252e-04
 Reference value :  1.34253e-04
 Reference value :  1.34254e-04
 Reference value :  1.34255e-04
 Reference value :  1.34256e-04
 Reference value :  1.34257e-04
 Reference value :  1.34258e-04
 Reference value :  1.34259e-04
 Reference value :  1.34260e-04
 Reference value :  1.34262e-04
 Reference value :  1.34263e-04
 Reference value :  1.34265e-04
 Reference value :  1.34267e-04
 Reference value :  1.34270e-04
 Reference value :  1.34274e-04
 Reference value :  1.34280e-04
 Reference value :  1.34291e-04
 Reference value :  1.34314e-04
 Reference value :  1.34359e-04
 Reference value :  1.34423e-04
 Reference value :  1.34476e-04
 Reference value :  1.34500e-04
 Reference value :  1.34500e-04
 Reference value :  1.34500e-04
 Reference value :  1.34500e-04
 Reference value :  1.34500e-04
 Reference value :  1.34500e-04
 Reference value :  1.34500e-04
 Reference value :  1.34500e-04
 Reference value :  1.34500e-04
 Reference value :  1.34500e-04
 Reference value :  1.34500e-04
 Reference value :  1.34501e-04
 Reference value :  1.34501e-04
 Reference value :  1.34502e-04
 Reference value :  1.34502e-04
 Reference value :  1.34503e-04
 Reference value :  1.34504e-04
 Reference value :  1.34504e-04
 Reference value :  1.34505e-04
 Reference value :  1.34506e-04
 Reference value :  1.34507e-04
 Reference value :  1.34508e-04
 Reference value :  1.34509e-04
 Reference value :  1.34510e-04
 Reference value :  1.34511e-04
 Reference value :  1.34512e-04
 Reference value :  1.34514e-04
 Reference value :  1.34517e-04
 Reference value :  1.34520e-04
 Reference value :  1.34523e-04
 Reference value :  1.34525e-04
 Reference value :  1.34527e-04
 Reference value :  1.34529e-04
 Reference value :  1.34531e-04
 Reference value :  1.34534e-04
 Reference value :  1.34536e-04
 Reference value :  1.34540e-04
 Reference value :  1.34545e-04
 Reference value :  1.34550e-04
 Reference value :  1.34555e-04
 Reference value :  1.34559e-04
 Reference value :  1.34566e-04
 Reference value :  1.34574e-04
 Reference value :  1.34585e-04
 Reference value :  1.34599e-04
 Reference value :  1.34621e-04
 Reference value :  1.34641e-04
 Reference value :  1.34665e-04
 Reference value :  1.34701e-04
 Reference value :  1.34750e-04
 Reference value :  1.34750e-04
 Reference value :  1.34750e-04
 Reference value :  1.34750e-04
 Reference value :  1.34750e-04
 Reference value :  1.34750e-04
 Reference value :  1.34750e-04
 Reference value :  1.34750e-04
 Reference value :  1.34750e-04
 Reference value :  1.34750e-04
 Reference value :  1.34750e-04
 Reference value :  1.34750e-04
 Reference value :  1.34750e-04
 Reference value :  1.34751e-04
 Reference value :  1.34751e-04
 Reference value :  1.34752e-04
 Reference value :  1.34752e-04
 Reference value :  1.34753e-04
 Reference value :  1.34754e-04
 Reference value :  1.34755e-04
 Reference value :  1.34756e-04
 Reference value :  1.34757e-04
 Reference value :  1.34758e-04
 Reference value :  1.34759e-04
 Reference value :  1.34760e-04
 Reference value :  1.34762e-04
 Reference value :  1.34765e-04
 Reference value :  1.34768e-04
 Reference value :  1.34773e-04
 Reference value :  1.34783e-04
 Reference value :  1.34802e-04
 Reference value :  1.34838e-04
 Reference value :  1.34909e-04
 Reference value :  1.35000e-04
 Reference value :  1.35000e-04
 Reference value :  1.35000e-04
 Reference value :  1.35000e-04
 Reference value :  1.35000e-04
 Reference value :  1.35000e-04
 Reference value :  1.35000e-04
 Reference value :  1.35000e-04
 Reference value :  1.35000e-04
 Reference value :  1.35000e-04
 Reference value :  1.35000e-04
 Reference value :  1.35001e-04
 Reference value :  1.35001e-04
 Reference value :  1.35002e-04
 Reference value :  1.35002e-04
 Reference value :  1.35003e-04
 Reference value :  1.35004e-04
 Reference value :  1.35004e-04
 Reference value :  1.35005e-04
 Reference value :  1.35006e-04
 Reference value :  1.35007e-04
 Reference value :  1.35008e-04
 Reference value :  1.35010e-04
 Reference value :  1.35011e-04
 Reference value :  1.35013e-04
 Reference value :  1.35014e-04
 Reference value :  1.35016e-04
 Reference value :  1.35017e-04
 Reference value :  1.35019e-04
 Reference value :  1.35021e-04
 Reference value :  1.35025e-04
 Reference value :  1.35032e-04
 Reference value :  1.35045e-04
 Reference value :  1.35071e-04
 Reference value :  1.35123e-04
 Reference value :  1.35226e-04
 Reference value :  1.35250e-04
 Reference value :  1.35250e-04
 Reference value :  1.35250e-04
 Reference value :  1.35250e-04
 Reference value :  1.35250e-04
 Reference value :  1.35250e-04
 Reference value :  1.35250e-04
 Reference value :  1.35250e-04
 Reference value :  1.35250e-04
 Reference value :  1.35250e-04
 Reference value :  1.35250e-04
 Reference value :  1.35250e-04
 Reference value :  1.35250e-04
 Reference value :  1.35251e-04
 Reference value :  1.35251e-04
 Reference value :  1.35252e-04
 Reference value :  1.35252e-04
 Reference value :  1.35253e-04
 Reference value :  1.35254e-04
 Reference value :  1.35255e-04
 Reference value :  1.35256e-04
 Reference value :  1.35257e-04
 Reference value :  1.35258e-04
 Reference value :  1.35259e-04
 Reference value :  1.35260e-04
 Reference value :  1.35261e-04
 Reference value :  1.35263e-04
 Reference value :  1.35264e-04
 Reference value :  1.35266e-04
 Reference value :  1.35269e-04
 Reference value :  1.35273e-04
 Reference value :  1.35278e-04
 Reference value :  1.35287e-04
 Reference value :  1.35300e-04
 Reference value :  1.35324e-04
 Reference value :  1.35373e-04
 Reference value :  1.35463e-04
 Reference value :  1.35500e-04
 Reference value :  1.35500e-04
 Reference value :  1.35500e-04
 Reference value :  1.35500e-04
 Reference value :  1.35500e-04
 Reference value :  1.35500e-04
 Reference value :  1.35500e-04
 Reference value :  1.35500e-04
 Reference value :  1.35500e-04
 Reference value :  1.35500e-04
 Reference value :  1.35500e-04
 Reference value :  1.35501e-04
 Reference value :  1.35501e-04
 Reference value :  1.35502e-04
 Reference value :  1.35502e-04
 Reference value :  1.35503e-04
 Reference value :  1.35504e-04
 Reference value :  1.35504e-04
 Reference value :  1.35505e-04
 Reference value :  1.35506e-04
 Reference value :  1.35507e-04
 Reference value :  1.35508e-04
 Reference value :  1.35509e-04
 Reference value :  1.35510e-04
 Reference value :  1.35511e-04
 Reference value :  1.35512e-04
 Reference value :  1.35514e-04
 Reference value :  1.35516e-04
 Reference value :  1.35518e-04
 Reference value :  1.35520e-04
 Reference value :  1.35521e-04
 Reference value :  1.35523e-04
 Reference value :  1.35525e-04
 Reference value :  1.35527e-04
 Reference value :  1.35530e-04
 Reference value :  1.35532e-04
 Reference value :  1.35534e-04
 Reference value :  1.35539e-04
 Reference value :  1.35546e-04
 Reference value :  1.35559e-04
 Reference value :  1.35576e-04
 Reference value :  1.35611e-04
 Reference value :  1.35674e-04
 Reference value :  1.35750e-04
 Reference value :  1.35750e-04
 Reference value :  1.35750e-04
 Reference value :  1.35750e-04
 Reference value :  1.35750e-04
 Reference value :  1.35750e-04
 Reference value :  1.35750e-04
 Reference value :  1.35750e-04
 Reference value :  1.35750e-04
 Reference value :  1.35750e-04
 Reference value :  1.35750e-04
 Reference value :  1.35750e-04
 Reference value :  1.35750e-04
 Reference value :  1.35751e-04
 Reference value :  1.35751e-04
 Reference value :  1.35752e-04
 Reference value :  1.35752e-04
 Reference value :  1.35753e-04
 Reference value :  1.35754e-04
 Reference value :  1.35755e-04
 Reference value :  1.35756e-04
 Reference value :  1.35758e-04
 Reference value :  1.35759e-04
 Reference value :  1.35761e-04
 Reference value :  1.35764e-04
 Reference value :  1.35767e-04
 Reference value :  1.35771e-04
 Reference value :  1.35777e-04
 Reference value :  1.35789e-04
 Reference value :  1.35812e-04
 Reference value :  1.35860e-04
 Reference value :  1.35955e-04
 Reference value :  1.36000e-04
No. of Data Rows : 20808
ngspice-44 done
