
Note: Compatibility modes selected: hs a


Circuit: ** sch_path: /home/audrey/cace/sar-adc-using-sky130-pdk/runs/run_2025-08-29_19-02-33/parameters/power/run_0/power_consumption.sch

option SCALE: Scale is set to 1e-06 for instance and model parameters
option SCALE: Scale is set to 1e-06 for instance and model parameters
option SCALE: Scale is set to 1e-06 for instance and model parameters
option SCALE: Scale is set to 1e-06 for instance and model parameters
Doing analysis at TEMP = 27.000000 and TNOM = 27.000000

Using KLU as Direct Linear Solver
Operating point simulation skipped by 'uic',
  now using transient initial conditions.
 Reference value :  5.00000e-12
 Reference value :  5.13423e-12
 Reference value :  5.40268e-12
 Reference value :  5.93960e-12
 Reference value :  7.01342e-12
 Reference value :  8.87674e-12
 Reference value :  1.19448e-11
 Reference value :  1.75027e-11
 Reference value :  2.82605e-11
 Reference value :  4.17372e-11
 Reference value :  6.66295e-11
 Reference value :  9.65367e-11
 Reference value :  1.49103e-10
 Reference value :  2.11551e-10
 Reference value :  3.32613e-10
 Reference value :  4.71490e-10
 Reference value :  5.00000e-10
 Reference value :  5.03843e-10
 Reference value :  5.11528e-10
 Reference value :  5.26899e-10
 Reference value :  5.57640e-10
 Reference value :  6.19123e-10
 Reference value :  7.42088e-10
 Reference value :  9.88019e-10
 Reference value :  1.47988e-09
 Reference value :  2.46360e-09
 Reference value :  4.43105e-09
 Reference value :  6.20856e-09
 Reference value :  9.76360e-09
 Reference value :  1.61594e-08
 Reference value :  2.40692e-08
 Reference value :  3.67110e-08
 Reference value :  5.18960e-08
 Reference value :  7.97532e-08
 Reference value :  1.21660e-07
 Reference value :  2.05475e-07
 Reference value :  3.73103e-07
 Reference value :  5.00000e-07
 Reference value :  5.33526e-07
 Reference value :  6.00577e-07
 Reference value :  7.34680e-07
 Reference value :  1.00050e-06
 Reference value :  1.00055e-06
 Reference value :  1.00065e-06
 Reference value :  1.00085e-06
 Reference value :  1.00100e-06
 Reference value :  1.00103e-06
 Reference value :  1.00110e-06
 Reference value :  1.00124e-06
 Reference value :  1.00151e-06
 Reference value :  1.00198e-06
 Reference value :  1.00253e-06
 Reference value :  1.00338e-06
 Reference value :  1.00465e-06
 Reference value :  1.00691e-06
 Reference value :  1.01003e-06
 Reference value :  1.01626e-06
 Reference value :  1.02545e-06
 Reference value :  1.03414e-06
 Reference value :  1.04375e-06
 Reference value :  1.05277e-06
 Reference value :  1.06168e-06
 Reference value :  1.07125e-06
 Reference value :  1.08459e-06
 Reference value :  1.09951e-06
 Reference value :  1.11576e-06
 Reference value :  1.13089e-06
 Reference value :  1.14260e-06
 Reference value :  1.15243e-06
 Reference value :  1.16303e-06
 Reference value :  1.17367e-06
 Reference value :  1.18153e-06
 Reference value :  1.18969e-06
 Reference value :  1.19716e-06
 Reference value :  1.20294e-06
 Reference value :  1.20883e-06
 Reference value :  1.21477e-06
 Reference value :  1.22369e-06
 Reference value :  1.23059e-06
 Reference value :  1.23802e-06
 Reference value :  1.24366e-06
 Reference value :  1.24950e-06
 Reference value :  1.25500e-06
 Reference value :  1.25946e-06
 Reference value :  1.26440e-06
 Reference value :  1.26943e-06
 Reference value :  1.27520e-06
 Reference value :  1.28127e-06
 Reference value :  1.29135e-06
 Reference value :  1.30360e-06
 Reference value :  1.32310e-06
 Reference value :  1.34150e-06
 Reference value :  1.36073e-06
 Reference value :  1.37405e-06
 Reference value :  1.38881e-06
 Reference value :  1.40043e-06
 Reference value :  1.41321e-06
 Reference value :  1.42328e-06
 Reference value :  1.43397e-06
 Reference value :  1.44855e-06
 Reference value :  1.47172e-06
 Reference value :  1.50778e-06
 Reference value :  1.56540e-06
 Reference value :  1.65969e-06
 Reference value :  1.66213e-06
 Reference value :  1.66700e-06
 Reference value :  1.67676e-06
 Reference value :  1.69626e-06
 Reference value :  1.73527e-06
 Reference value :  1.79150e-06
 Reference value :  1.83902e-06
 Reference value :  1.88797e-06
 Reference value :  1.94322e-06
 Reference value :  1.98871e-06
 Reference value :  2.00000e-06
 Reference value :  2.00005e-06
 Reference value :  2.00015e-06
 Reference value :  2.00035e-06
 Reference value :  2.00050e-06
 Reference value :  2.00051e-06
 Reference value :  2.00053e-06
 Reference value :  2.00056e-06
 Reference value :  2.00064e-06
 Reference value :  2.00079e-06
 Reference value :  2.00108e-06
 Reference value :  2.00167e-06
 Reference value :  2.00285e-06
 Reference value :  2.00413e-06
 Reference value :  2.00612e-06
 Reference value :  2.00929e-06
 Reference value :  2.01328e-06
 Reference value :  2.01760e-06
 Reference value :  2.02393e-06
 Reference value :  2.03579e-06
 Reference value :  2.05479e-06
 Reference value :  2.09278e-06
 Reference value :  2.16522e-06
 Reference value :  2.26564e-06
 Reference value :  2.40447e-06
 Reference value :  2.61482e-06
 Reference value :  2.96547e-06
 Reference value :  3.00050e-06
 Reference value :  3.00055e-06
 Reference value :  3.00065e-06
 Reference value :  3.00085e-06
 Reference value :  3.00100e-06
 Reference value :  3.00103e-06
 Reference value :  3.00109e-06
 Reference value :  3.00120e-06
 Reference value :  3.00143e-06
 Reference value :  3.00182e-06
 Reference value :  3.00218e-06
 Reference value :  3.00276e-06
 Reference value :  3.00353e-06
 Reference value :  3.00507e-06
 Reference value :  3.00815e-06
 Reference value :  3.01431e-06
 Reference value :  3.02663e-06
 Reference value :  3.05126e-06
 Reference value :  3.08140e-06
 Reference value :  3.12945e-06
 Reference value :  3.19061e-06
 Reference value :  3.27652e-06
 Reference value :  3.39912e-06
 Reference value :  3.64433e-06
 Reference value :  3.64963e-06
 Reference value :  3.66024e-06
 Reference value :  3.68145e-06
 Reference value :  3.72387e-06
 Reference value :  3.80872e-06
 Reference value :  3.89114e-06
 Reference value :  3.96080e-06
 Reference value :  4.00000e-06
 Reference value :  4.00005e-06
 Reference value :  4.00015e-06
 Reference value :  4.00035e-06
 Reference value :  4.00050e-06
 Reference value :  4.00051e-06
 Reference value :  4.00053e-06
 Reference value :  4.00056e-06
 Reference value :  4.00063e-06
 Reference value :  4.00077e-06
 Reference value :  4.00106e-06
 Reference value :  4.00162e-06
 Reference value :  4.00276e-06
 Reference value :  4.00407e-06
 Reference value :  4.00605e-06
 Reference value :  4.00911e-06
 Reference value :  4.01281e-06
 Reference value :  4.01771e-06
 Reference value :  4.02321e-06
 Reference value :  4.03421e-06
 Reference value :  4.05620e-06
 Reference value :  4.10019e-06
 Reference value :  4.17565e-06
 Reference value :  4.25154e-06
 Reference value :  4.31944e-06
 Reference value :  4.36909e-06
 Reference value :  4.42011e-06
 Reference value :  4.47654e-06
 Reference value :  4.53563e-06
 Reference value :  4.62767e-06
 Reference value :  4.73213e-06
 Reference value :  4.88605e-06
 Reference value :  5.00050e-06
 Reference value :  5.00055e-06
 Reference value :  5.00065e-06
 Reference value :  5.00085e-06
 Reference value :  5.00100e-06
 Reference value :  5.00103e-06
 Reference value :  5.00109e-06
 Reference value :  5.00121e-06
 Reference value :  5.00146e-06
 Reference value :  5.00180e-06
 Reference value :  5.00217e-06
 Reference value :  5.00276e-06
 Reference value :  5.00358e-06
 Reference value :  5.00524e-06
 Reference value :  5.00855e-06
 Reference value :  5.01518e-06
 Reference value :  5.02843e-06
 Reference value :  5.05467e-06
 Reference value :  5.08393e-06
 Reference value :  5.13151e-06
 Reference value :  5.18459e-06
 Reference value :  5.25957e-06
 Reference value :  5.39805e-06
 Reference value :  5.59749e-06
 Reference value :  5.60259e-06
 Reference value :  5.61280e-06
 Reference value :  5.63322e-06
 Reference value :  5.67405e-06
 Reference value :  5.75573e-06
 Reference value :  5.83290e-06
 Reference value :  5.88851e-06
 Reference value :  5.94074e-06
 Reference value :  6.00000e-06
 Reference value :  6.00005e-06
 Reference value :  6.00015e-06
 Reference value :  6.00035e-06
 Reference value :  6.00050e-06
 Reference value :  6.00051e-06
 Reference value :  6.00054e-06
 Reference value :  6.00058e-06
 Reference value :  6.00068e-06
 Reference value :  6.00087e-06
 Reference value :  6.00126e-06
 Reference value :  6.00204e-06
 Reference value :  6.00358e-06
 Reference value :  6.00623e-06
 Reference value :  6.00907e-06
 Reference value :  6.01412e-06
 Reference value :  6.01976e-06
 Reference value :  6.02949e-06
 Reference value :  6.03958e-06
 Reference value :  6.05429e-06
 Reference value :  6.08372e-06
 Reference value :  6.13195e-06
 Reference value :  6.22840e-06
 Reference value :  6.40834e-06
 Reference value :  6.72971e-06
 Reference value :  7.00050e-06
 Reference value :  7.00055e-06
 Reference value :  7.00065e-06
 Reference value :  7.00085e-06
 Reference value :  7.00100e-06
 Reference value :  7.00103e-06
 Reference value :  7.00109e-06
 Reference value :  7.00121e-06
 Reference value :  7.00145e-06
 Reference value :  7.00176e-06
 Reference value :  7.00219e-06
 Reference value :  7.00278e-06
 Reference value :  7.00392e-06
 Reference value :  7.00620e-06
 Reference value :  7.01077e-06
 Reference value :  7.01991e-06
 Reference value :  7.03819e-06
 Reference value :  7.07475e-06
 Reference value :  7.14787e-06
 Reference value :  7.24793e-06
 Reference value :  7.38492e-06
 Reference value :  7.52975e-06
 Reference value :  7.68852e-06
 Reference value :  7.80771e-06
 Reference value :  7.94322e-06
 Reference value :  8.00000e-06
 Reference value :  8.00005e-06
 Reference value :  8.00015e-06
 Reference value :  8.00035e-06
 Reference value :  8.00050e-06
 Reference value :  8.00051e-06
 Reference value :  8.00054e-06
 Reference value :  8.00059e-06
 Reference value :  8.00069e-06
 Reference value :  8.00089e-06
 Reference value :  8.00129e-06
 Reference value :  8.00210e-06
 Reference value :  8.00370e-06
 Reference value :  8.00692e-06
 Reference value :  8.01014e-06
 Reference value :  8.01655e-06
 Reference value :  8.02318e-06
 Reference value :  8.03498e-06
 Reference value :  8.05143e-06
 Reference value :  8.06682e-06
 Reference value :  8.09760e-06
 Reference value :  8.15916e-06
 Reference value :  8.28228e-06
 Reference value :  8.49443e-06
 Reference value :  8.86960e-06
 Reference value :  9.00050e-06
 Reference value :  9.00055e-06
 Reference value :  9.00065e-06
 Reference value :  9.00085e-06
 Reference value :  9.00100e-06
 Reference value :  9.00103e-06
 Reference value :  9.00109e-06
 Reference value :  9.00121e-06
 Reference value :  9.00144e-06
 Reference value :  9.00175e-06
 Reference value :  9.00218e-06
 Reference value :  9.00277e-06
 Reference value :  9.00386e-06
 Reference value :  9.00605e-06
 Reference value :  9.01041e-06
 Reference value :  9.01915e-06
 Reference value :  9.03662e-06
 Reference value :  9.07157e-06
 Reference value :  9.09751e-06
 Reference value :  9.12409e-06
 Reference value :  9.16096e-06
 Reference value :  9.19240e-06
 Reference value :  9.22557e-06
 Reference value :  9.27732e-06
 Reference value :  9.33007e-06
 Reference value :  9.41805e-06
 Reference value :  9.53401e-06
 Reference value :  9.71034e-06
 Reference value :  9.93395e-06
 Reference value :  1.00000e-05
 Reference value :  1.00000e-05
 Reference value :  1.00001e-05
 Reference value :  1.00003e-05
 Reference value :  1.00005e-05
 Reference value :  1.00005e-05
 Reference value :  1.00005e-05
 Reference value :  1.00006e-05
 Reference value :  1.00006e-05
 Reference value :  1.00008e-05
 Reference value :  1.00011e-05
 Reference value :  1.00018e-05
 Reference value :  1.00030e-05
 Reference value :  1.00055e-05
 Reference value :  1.00082e-05
 Reference value :  1.00131e-05
 Reference value :  1.00184e-05
 Reference value :  1.00271e-05
 Reference value :  1.00375e-05
 Reference value :  1.00501e-05
 Reference value :  1.00753e-05
 Reference value :  1.01250e-05
 Reference value :  1.02156e-05
 Reference value :  1.03360e-05
 Reference value :  1.05322e-05
 Reference value :  1.07815e-05
 Reference value :  1.10005e-05
 Reference value :  1.10005e-05
 Reference value :  1.10006e-05
 Reference value :  1.10008e-05
 Reference value :  1.10010e-05
 Reference value :  1.10010e-05
 Reference value :  1.10011e-05
 Reference value :  1.10012e-05
 Reference value :  1.10015e-05
 Reference value :  1.10018e-05
 Reference value :  1.10022e-05
 Reference value :  1.10028e-05
 Reference value :  1.10039e-05
 Reference value :  1.10061e-05
 Reference value :  1.10106e-05
 Reference value :  1.10195e-05
 Reference value :  1.10373e-05
 Reference value :  1.10729e-05
 Reference value :  1.11306e-05
 Reference value :  1.12030e-05
 Reference value :  1.13089e-05
 Reference value :  1.14689e-05
 Reference value :  1.17000e-05
 Reference value :  1.19658e-05
 Reference value :  1.20000e-05
 Reference value :  1.20000e-05
 Reference value :  1.20001e-05
 Reference value :  1.20003e-05
 Reference value :  1.20005e-05
 Reference value :  1.20005e-05
 Reference value :  1.20005e-05
 Reference value :  1.20006e-05
 Reference value :  1.20007e-05
 Reference value :  1.20009e-05
 Reference value :  1.20013e-05
 Reference value :  1.20021e-05
 Reference value :  1.20037e-05
 Reference value :  1.20066e-05
 Reference value :  1.20096e-05
 Reference value :  1.20151e-05
 Reference value :  1.20211e-05
 Reference value :  1.20315e-05
 Reference value :  1.20424e-05
 Reference value :  1.20581e-05
 Reference value :  1.20895e-05
 Reference value :  1.21403e-05
 Reference value :  1.22420e-05
 Reference value :  1.23828e-05
 Reference value :  1.25472e-05
 Reference value :  1.27526e-05
 Reference value :  1.30005e-05
 Reference value :  1.30006e-05
 Reference value :  1.30007e-05
 Reference value :  1.30009e-05
 Reference value :  1.30010e-05
 Reference value :  1.30010e-05
 Reference value :  1.30011e-05
 Reference value :  1.30012e-05
 Reference value :  1.30014e-05
 Reference value :  1.30018e-05
 Reference value :  1.30022e-05
 Reference value :  1.30028e-05
 Reference value :  1.30038e-05
 Reference value :  1.30060e-05
 Reference value :  1.30103e-05
 Reference value :  1.30189e-05
 Reference value :  1.30360e-05
 Reference value :  1.30703e-05
 Reference value :  1.31390e-05
 Reference value :  1.31488e-05
 Reference value :  1.31685e-05
 Reference value :  1.32079e-05
 Reference value :  1.32602e-05
 Reference value :  1.33103e-05
 Reference value :  1.33467e-05
 Reference value :  1.33814e-05
 Reference value :  1.34160e-05
 Reference value :  1.34552e-05
 Reference value :  1.34965e-05
 Reference value :  1.35439e-05
 Reference value :  1.35997e-05
 Reference value :  1.36658e-05
 Reference value :  1.37506e-05
 Reference value :  1.38641e-05
 Reference value :  1.40000e-05
 Reference value :  1.40000e-05
 Reference value :  1.40002e-05
 Reference value :  1.40004e-05
 Reference value :  1.40005e-05
 Reference value :  1.40005e-05
 Reference value :  1.40005e-05
 Reference value :  1.40006e-05
 Reference value :  1.40007e-05
 Reference value :  1.40009e-05
 Reference value :  1.40013e-05
 Reference value :  1.40021e-05
 Reference value :  1.40037e-05
 Reference value :  1.40069e-05
 Reference value :  1.40103e-05
 Reference value :  1.40164e-05
 Reference value :  1.40233e-05
 Reference value :  1.40342e-05
 Reference value :  1.40479e-05
 Reference value :  1.40637e-05
 Reference value :  1.40955e-05
 Reference value :  1.41591e-05
 Reference value :  1.42677e-05
 Reference value :  1.44298e-05
 Reference value :  1.46109e-05
 Reference value :  1.49088e-05
 Reference value :  1.50005e-05
 Reference value :  1.50005e-05
 Reference value :  1.50007e-05
 Reference value :  1.50009e-05
 Reference value :  1.50010e-05
 Reference value :  1.50010e-05
 Reference value :  1.50011e-05
 Reference value :  1.50012e-05
 Reference value :  1.50014e-05
 Reference value :  1.50018e-05
 Reference value :  1.50022e-05
 Reference value :  1.50028e-05
 Reference value :  1.50039e-05
 Reference value :  1.50061e-05
 Reference value :  1.50104e-05
 Reference value :  1.50192e-05
 Reference value :  1.50367e-05
 Reference value :  1.50717e-05
 Reference value :  1.51416e-05
 Reference value :  1.52251e-05
 Reference value :  1.53384e-05
 Reference value :  1.54118e-05
 Reference value :  1.54798e-05
 Reference value :  1.55451e-05
 Reference value :  1.56179e-05
 Reference value :  1.56968e-05
 Reference value :  1.57883e-05
 Reference value :  1.58988e-05
 Reference value :  1.60000e-05
 Reference value :  1.60000e-05
 Reference value :  1.60001e-05
 Reference value :  1.60004e-05
 Reference value :  1.60005e-05
 Reference value :  1.60005e-05
 Reference value :  1.60005e-05
 Reference value :  1.60006e-05
 Reference value :  1.60007e-05
 Reference value :  1.60008e-05
 Reference value :  1.60012e-05
 Reference value :  1.60018e-05
 Reference value :  1.60032e-05
 Reference value :  1.60059e-05
 Reference value :  1.60113e-05
 Reference value :  1.60222e-05
 Reference value :  1.60439e-05
 Reference value :  1.60756e-05
 Reference value :  1.61096e-05
 Reference value :  1.61775e-05
 Reference value :  1.62927e-05
 Reference value :  1.64175e-05
 Reference value :  1.65514e-05
 Reference value :  1.68192e-05
 Reference value :  1.70005e-05
 Reference value :  1.70006e-05
 Reference value :  1.70007e-05
 Reference value :  1.70009e-05
 Reference value :  1.70010e-05
 Reference value :  1.70010e-05
 Reference value :  1.70011e-05
 Reference value :  1.70012e-05
 Reference value :  1.70014e-05
 Reference value :  1.70018e-05
 Reference value :  1.70022e-05
 Reference value :  1.70028e-05
 Reference value :  1.70038e-05
 Reference value :  1.70060e-05
 Reference value :  1.70102e-05
 Reference value :  1.70187e-05
 Reference value :  1.70357e-05
 Reference value :  1.70697e-05
 Reference value :  1.71378e-05
 Reference value :  1.72458e-05
 Reference value :  1.73978e-05
 Reference value :  1.76352e-05
 Reference value :  1.80000e-05
 Reference value :  1.80001e-05
 Reference value :  1.80002e-05
 Reference value :  1.80004e-05
 Reference value :  1.80005e-05
 Reference value :  1.80005e-05
 Reference value :  1.80005e-05
 Reference value :  1.80006e-05
 Reference value :  1.80007e-05
 Reference value :  1.80008e-05
 Reference value :  1.80012e-05
 Reference value :  1.80018e-05
 Reference value :  1.80032e-05
 Reference value :  1.80059e-05
 Reference value :  1.80113e-05
 Reference value :  1.80222e-05
 Reference value :  1.80439e-05
 Reference value :  1.80764e-05
 Reference value :  1.81107e-05
 Reference value :  1.81791e-05
 Reference value :  1.82973e-05
 Reference value :  1.84208e-05
 Reference value :  1.85611e-05
 Reference value :  1.87951e-05
 Reference value :  1.90005e-05
 Reference value :  1.90006e-05
 Reference value :  1.90007e-05
 Reference value :  1.90009e-05
 Reference value :  1.90010e-05
 Reference value :  1.90010e-05
 Reference value :  1.90011e-05
 Reference value :  1.90012e-05
 Reference value :  1.90014e-05
 Reference value :  1.90018e-05
 Reference value :  1.90022e-05
 Reference value :  1.90028e-05
 Reference value :  1.90038e-05
 Reference value :  1.90060e-05
 Reference value :  1.90102e-05
 Reference value :  1.90187e-05
 Reference value :  1.90357e-05
 Reference value :  1.90574e-05
 Reference value :  1.90844e-05
 Reference value :  1.91180e-05
 Reference value :  1.91520e-05
 Reference value :  1.92013e-05
 Reference value :  1.92902e-05
 Reference value :  1.93804e-05
 Reference value :  1.94673e-05
 Reference value :  1.95980e-05
 Reference value :  1.97369e-05
 Reference value :  2.00000e-05
 Reference value :  2.00001e-05
 Reference value :  2.00002e-05
 Reference value :  2.00004e-05
 Reference value :  2.00005e-05
 Reference value :  2.00005e-05
 Reference value :  2.00005e-05
 Reference value :  2.00006e-05
 Reference value :  2.00007e-05
 Reference value :  2.00008e-05
 Reference value :  2.00012e-05
 Reference value :  2.00018e-05
 Reference value :  2.00032e-05
 Reference value :  2.00059e-05
 Reference value :  2.00113e-05
 Reference value :  2.00222e-05
 Reference value :  2.00438e-05
 Reference value :  2.00766e-05
 Reference value :  2.01108e-05
 Reference value :  2.01791e-05
 Reference value :  2.02967e-05
 Reference value :  2.04197e-05
 Reference value :  2.05190e-05
 Reference value :  2.06203e-05
 Reference value :  2.07140e-05
 Reference value :  2.08272e-05
 Reference value :  2.09508e-05
 Reference value :  2.10005e-05
 Reference value :  2.10005e-05
 Reference value :  2.10006e-05
 Reference value :  2.10008e-05
 Reference value :  2.10010e-05
 Reference value :  2.10010e-05
 Reference value :  2.10011e-05
 Reference value :  2.10012e-05
 Reference value :  2.10014e-05
 Reference value :  2.10018e-05
 Reference value :  2.10022e-05
 Reference value :  2.10028e-05
 Reference value :  2.10038e-05
 Reference value :  2.10060e-05
 Reference value :  2.10103e-05
 Reference value :  2.10189e-05
 Reference value :  2.10360e-05
 Reference value :  2.10704e-05
 Reference value :  2.11391e-05
 Reference value :  2.12541e-05
 Reference value :  2.14124e-05
 Reference value :  2.16653e-05
 Reference value :  2.20000e-05
 Reference value :  2.20000e-05
 Reference value :  2.20001e-05
 Reference value :  2.20004e-05
 Reference value :  2.20005e-05
 Reference value :  2.20005e-05
 Reference value :  2.20005e-05
 Reference value :  2.20006e-05
 Reference value :  2.20007e-05
 Reference value :  2.20008e-05
 Reference value :  2.20012e-05
 Reference value :  2.20018e-05
 Reference value :  2.20032e-05
 Reference value :  2.20059e-05
 Reference value :  2.20114e-05
 Reference value :  2.20222e-05
 Reference value :  2.20440e-05
 Reference value :  2.20775e-05
 Reference value :  2.21119e-05
 Reference value :  2.21806e-05
 Reference value :  2.22984e-05
 Reference value :  2.24207e-05
 Reference value :  2.25648e-05
 Reference value :  2.27904e-05
 Reference value :  2.30005e-05
 Reference value :  2.30005e-05
 Reference value :  2.30006e-05
 Reference value :  2.30008e-05
 Reference value :  2.30010e-05
 Reference value :  2.30010e-05
 Reference value :  2.30011e-05
 Reference value :  2.30012e-05
 Reference value :  2.30014e-05
 Reference value :  2.30018e-05
 Reference value :  2.30022e-05
 Reference value :  2.30028e-05
 Reference value :  2.30038e-05
 Reference value :  2.30060e-05
 Reference value :  2.30102e-05
 Reference value :  2.30187e-05
 Reference value :  2.30357e-05
 Reference value :  2.30698e-05
 Reference value :  2.31378e-05
 Reference value :  2.32549e-05
 Reference value :  2.34136e-05
 Reference value :  2.36700e-05
 Reference value :  2.40000e-05
 Reference value :  2.40001e-05
 Reference value :  2.40002e-05
 Reference value :  2.40004e-05
 Reference value :  2.40005e-05
 Reference value :  2.40005e-05
 Reference value :  2.40005e-05
 Reference value :  2.40006e-05
 Reference value :  2.40007e-05
 Reference value :  2.40008e-05
 Reference value :  2.40012e-05
 Reference value :  2.40018e-05
 Reference value :  2.40032e-05
 Reference value :  2.40059e-05
 Reference value :  2.40113e-05
 Reference value :  2.40222e-05
 Reference value :  2.40439e-05
 Reference value :  2.40783e-05
 Reference value :  2.41119e-05
 Reference value :  2.41792e-05
 Reference value :  2.42984e-05
 Reference value :  2.44221e-05
 Reference value :  2.45623e-05
 Reference value :  2.47975e-05
 Reference value :  2.50005e-05
 Reference value :  2.50005e-05
 Reference value :  2.50006e-05
 Reference value :  2.50008e-05
 Reference value :  2.50010e-05
 Reference value :  2.50010e-05
 Reference value :  2.50011e-05
 Reference value :  2.50012e-05
 Reference value :  2.50014e-05
 Reference value :  2.50018e-05
 Reference value :  2.50022e-05
 Reference value :  2.50028e-05
 Reference value :  2.50038e-05
 Reference value :  2.50060e-05
 Reference value :  2.50102e-05
 Reference value :  2.50187e-05
 Reference value :  2.50357e-05
 Reference value :  2.50698e-05
 Reference value :  2.51378e-05
 Reference value :  2.52551e-05
 Reference value :  2.54139e-05
 Reference value :  2.56706e-05
 Reference value :  2.60000e-05
 Reference value :  2.60001e-05
 Reference value :  2.60002e-05
 Reference value :  2.60004e-05
 Reference value :  2.60005e-05
 Reference value :  2.60005e-05
 Reference value :  2.60005e-05
 Reference value :  2.60006e-05
 Reference value :  2.60007e-05
 Reference value :  2.60008e-05
 Reference value :  2.60012e-05
 Reference value :  2.60018e-05
 Reference value :  2.60032e-05
 Reference value :  2.60059e-05
 Reference value :  2.60113e-05
 Reference value :  2.60222e-05
 Reference value :  2.60439e-05
 Reference value :  2.60792e-05
 Reference value :  2.61126e-05
 Reference value :  2.61794e-05
 Reference value :  2.62992e-05
 Reference value :  2.64230e-05
 Reference value :  2.65633e-05
 Reference value :  2.67988e-05
 Reference value :  2.70005e-05
 Reference value :  2.70006e-05
 Reference value :  2.70007e-05
 Reference value :  2.70009e-05
 Reference value :  2.70010e-05
 Reference value :  2.70010e-05
 Reference value :  2.70011e-05
 Reference value :  2.70012e-05
 Reference value :  2.70014e-05
 Reference value :  2.70018e-05
 Reference value :  2.70022e-05
 Reference value :  2.70028e-05
 Reference value :  2.70038e-05
 Reference value :  2.70060e-05
 Reference value :  2.70102e-05
 Reference value :  2.70187e-05
 Reference value :  2.70357e-05
 Reference value :  2.70698e-05
 Reference value :  2.71378e-05
 Reference value :  2.72555e-05
 Reference value :  2.74146e-05
 Reference value :  2.76722e-05
 Reference value :  2.80000e-05
 Reference value :  2.80000e-05
 Reference value :  2.80001e-05
 Reference value :  2.80004e-05
 Reference value :  2.80005e-05
 Reference value :  2.80005e-05
 Reference value :  2.80005e-05
 Reference value :  2.80006e-05
 Reference value :  2.80007e-05
 Reference value :  2.80008e-05
 Reference value :  2.80012e-05
 Reference value :  2.80018e-05
 Reference value :  2.80032e-05
 Reference value :  2.80059e-05
 Reference value :  2.80113e-05
 Reference value :  2.80222e-05
 Reference value :  2.80439e-05
 Reference value :  2.80798e-05
 Reference value :  2.81130e-05
 Reference value :  2.81795e-05
 Reference value :  2.82998e-05
 Reference value :  2.84236e-05
 Reference value :  2.85640e-05
 Reference value :  2.87999e-05
 Reference value :  2.90005e-05
 Reference value :  2.90006e-05
 Reference value :  2.90007e-05
 Reference value :  2.90009e-05
 Reference value :  2.90010e-05
 Reference value :  2.90010e-05
 Reference value :  2.90011e-05
 Reference value :  2.90012e-05
 Reference value :  2.90014e-05
 Reference value :  2.90018e-05
 Reference value :  2.90022e-05
 Reference value :  2.90028e-05
 Reference value :  2.90038e-05
 Reference value :  2.90060e-05
 Reference value :  2.90102e-05
 Reference value :  2.90187e-05
 Reference value :  2.90357e-05
 Reference value :  2.90698e-05
 Reference value :  2.91378e-05
 Reference value :  2.92558e-05
 Reference value :  2.94152e-05
 Reference value :  2.96734e-05
 Reference value :  3.00000e-05
 Reference value :  3.00001e-05
 Reference value :  3.00002e-05
 Reference value :  3.00004e-05
 Reference value :  3.00005e-05
 Reference value :  3.00005e-05
 Reference value :  3.00005e-05
 Reference value :  3.00006e-05
 Reference value :  3.00007e-05
 Reference value :  3.00008e-05
 Reference value :  3.00012e-05
 Reference value :  3.00018e-05
 Reference value :  3.00032e-05
 Reference value :  3.00059e-05
 Reference value :  3.00113e-05
 Reference value :  3.00222e-05
 Reference value :  3.00439e-05
 Reference value :  3.00802e-05
 Reference value :  3.01133e-05
 Reference value :  3.01796e-05
 Reference value :  3.03001e-05
 Reference value :  3.04240e-05
 Reference value :  3.05644e-05
 Reference value :  3.08006e-05
 Reference value :  3.10005e-05
 Reference value :  3.10005e-05
 Reference value :  3.10006e-05
 Reference value :  3.10008e-05
 Reference value :  3.10010e-05
 Reference value :  3.10010e-05
 Reference value :  3.10011e-05
 Reference value :  3.10012e-05
 Reference value :  3.10014e-05
 Reference value :  3.10018e-05
 Reference value :  3.10022e-05
 Reference value :  3.10028e-05
 Reference value :  3.10038e-05
 Reference value :  3.10060e-05
 Reference value :  3.10102e-05
 Reference value :  3.10187e-05
 Reference value :  3.10357e-05
 Reference value :  3.10698e-05
 Reference value :  3.11378e-05
 Reference value :  3.12560e-05
 Reference value :  3.14155e-05
 Reference value :  3.16742e-05
 Reference value :  3.20000e-05
 Reference value :  3.20000e-05
 Reference value :  3.20001e-05
 Reference value :  3.20003e-05
 Reference value :  3.20005e-05
 Reference value :  3.20005e-05
 Reference value :  3.20005e-05
 Reference value :  3.20006e-05
 Reference value :  3.20007e-05
 Reference value :  3.20008e-05
 Reference value :  3.20012e-05
 Reference value :  3.20018e-05
 Reference value :  3.20032e-05
 Reference value :  3.20059e-05
 Reference value :  3.20113e-05
 Reference value :  3.20222e-05
 Reference value :  3.20439e-05
 Reference value :  3.20804e-05
 Reference value :  3.21135e-05
 Reference value :  3.21796e-05
 Reference value :  3.23004e-05
 Reference value :  3.24243e-05
 Reference value :  3.25647e-05
 Reference value :  3.28011e-05
 Reference value :  3.30005e-05
 Reference value :  3.30006e-05
 Reference value :  3.30007e-05
 Reference value :  3.30009e-05
 Reference value :  3.30010e-05
 Reference value :  3.30010e-05
 Reference value :  3.30011e-05
 Reference value :  3.30012e-05
 Reference value :  3.30014e-05
 Reference value :  3.30018e-05
 Reference value :  3.30022e-05
 Reference value :  3.30028e-05
 Reference value :  3.30038e-05
 Reference value :  3.30060e-05
 Reference value :  3.30102e-05
 Reference value :  3.30187e-05
 Reference value :  3.30357e-05
 Reference value :  3.30698e-05
 Reference value :  3.31378e-05
 Reference value :  3.32561e-05
 Reference value :  3.34158e-05
 Reference value :  3.36747e-05
 Reference value :  3.40000e-05
No. of Data Rows : 927
ngspice-44 done
