
Note: Compatibility modes selected: hs a


Circuit: ** sch_path: /home/ece/cace/sar-adc-using-sky130-pdk/runs/run_2025-09-12_16-58-12/parameters/sndr/run_0/sndr_enob_fom.sch

option SCALE: Scale is set to 1e-06 for instance and model parameters
option SCALE: Scale is set to 1e-06 for instance and model parameters
option SCALE: Scale is set to 1e-06 for instance and model parameters
option SCALE: Scale is set to 1e-06 for instance and model parameters
Doing analysis at TEMP = 27.000000 and TNOM = 27.000000

Using KLU as Direct Linear Solver
Operating point simulation skipped by 'uic',
  now using transient initial conditions.
 Reference value :  1.00000e-12
 Reference value :  1.02772e-12
 Reference value :  1.08316e-12
 Reference value :  1.19404e-12
 Reference value :  1.33846e-12
 Reference value :  1.62729e-12
 Reference value :  2.20497e-12
 Reference value :  3.05967e-12
 Reference value :  3.96279e-12
 Reference value :  5.17607e-12
 Reference value :  6.89262e-12
 Reference value :  1.02353e-11
 Reference value :  1.40707e-11
 Reference value :  2.08835e-11
 Reference value :  2.75763e-11
 Reference value :  3.66460e-11
 Reference value :  4.78769e-11
 Reference value :  6.59754e-11
 Reference value :  8.68738e-11
 Reference value :  1.00000e-10
 Reference value :  1.01088e-10
 Reference value :  1.03264e-10
 Reference value :  1.07616e-10
 Reference value :  1.16320e-10
 Reference value :  1.33727e-10
 Reference value :  1.68542e-10
 Reference value :  2.38172e-10
 Reference value :  3.77432e-10
 Reference value :  5.35162e-10
 Reference value :  7.80467e-10
 Reference value :  1.11106e-09
 Reference value :  1.50457e-09
 Reference value :  2.17552e-09
 Reference value :  2.87809e-09
 Reference value :  3.74115e-09
 Reference value :  4.51850e-09
 Reference value :  5.35467e-09
 Reference value :  6.65569e-09
 Reference value :  7.89684e-09
 Reference value :  9.04652e-09
 Reference value :  9.87168e-09
 Reference value :  1.07683e-08
 Reference value :  1.17939e-08
 Reference value :  1.28252e-08
 Reference value :  1.48009e-08
 Reference value :  1.72842e-08
 Reference value :  2.17795e-08
 Reference value :  2.58610e-08
 Reference value :  2.93384e-08
 Reference value :  3.32214e-08
 Reference value :  3.63992e-08
 Reference value :  3.96799e-08
 Reference value :  4.36622e-08
 Reference value :  4.95638e-08
 Reference value :  5.81909e-08
 Reference value :  7.43587e-08
 Reference value :  9.76963e-08
 Reference value :  1.44372e-07
 Reference value :  2.08873e-07
 Reference value :  2.50100e-07
 Reference value :  2.50110e-07
 Reference value :  2.50130e-07
 Reference value :  2.50170e-07
 Reference value :  2.50200e-07
 Reference value :  2.50201e-07
 Reference value :  2.50202e-07
 Reference value :  2.50204e-07
 Reference value :  2.50208e-07
 Reference value :  2.50216e-07
 Reference value :  2.50233e-07
 Reference value :  2.50266e-07
 Reference value :  2.50332e-07
 Reference value :  2.50408e-07
 Reference value :  2.50559e-07
 Reference value :  2.50706e-07
 Reference value :  2.51000e-07
 Reference value :  2.51329e-07
 Reference value :  2.51814e-07
 Reference value :  2.52369e-07
 Reference value :  2.52973e-07
 Reference value :  2.53861e-07
 Reference value :  2.54730e-07
 Reference value :  2.55539e-07
 Reference value :  2.56397e-07
 Reference value :  2.57284e-07
 Reference value :  2.58159e-07
 Reference value :  2.59692e-07
 Reference value :  2.61760e-07
 Reference value :  2.63982e-07
 Reference value :  2.67676e-07
 Reference value :  2.73180e-07
 Reference value :  2.84189e-07
 Reference value :  3.06206e-07
 Reference value :  3.46161e-07
 Reference value :  4.26070e-07
 Reference value :  5.00000e-07
 Reference value :  5.00010e-07
 Reference value :  5.00030e-07
 Reference value :  5.00070e-07
 Reference value :  5.00100e-07
 Reference value :  5.00104e-07
 Reference value :  5.00113e-07
 Reference value :  5.00130e-07
 Reference value :  5.00163e-07
 Reference value :  5.00231e-07
 Reference value :  5.00366e-07
 Reference value :  5.00553e-07
 Reference value :  5.00927e-07
 Reference value :  5.01510e-07
 Reference value :  5.02040e-07
 Reference value :  5.02609e-07
 Reference value :  5.03288e-07
 Reference value :  5.04079e-07
 Reference value :  5.04829e-07
 Reference value :  5.05642e-07
 Reference value :  5.06668e-07
 Reference value :  5.07755e-07
 Reference value :  5.09486e-07
 Reference value :  5.12227e-07
 Reference value :  5.14062e-07
 Reference value :  5.16137e-07
 Reference value :  5.18338e-07
 Reference value :  5.20723e-07
 Reference value :  5.23450e-07
 Reference value :  5.27988e-07
 Reference value :  5.34633e-07
 Reference value :  5.45822e-07
 Reference value :  5.65435e-07
 Reference value :  5.98749e-07
 Reference value :  6.59309e-07
 Reference value :  7.50100e-07
 Reference value :  7.50110e-07
 Reference value :  7.50130e-07
 Reference value :  7.50170e-07
 Reference value :  7.50200e-07
 Reference value :  7.50201e-07
 Reference value :  7.50202e-07
 Reference value :  7.50205e-07
 Reference value :  7.50211e-07
 Reference value :  7.50223e-07
 Reference value :  7.50247e-07
 Reference value :  7.50295e-07
 Reference value :  7.50390e-07
 Reference value :  7.50580e-07
 Reference value :  7.50954e-07
 Reference value :  7.51429e-07
 Reference value :  7.51992e-07
 Reference value :  7.52594e-07
 Reference value :  7.53250e-07
 Reference value :  7.54105e-07
 Reference value :  7.54725e-07
 Reference value :  7.55452e-07
 Reference value :  7.56121e-07
 Reference value :  7.56853e-07
 Reference value :  7.57765e-07
 Reference value :  7.58760e-07
 Reference value :  7.60750e-07
 Reference value :  7.62908e-07
 Reference value :  7.66537e-07
 Reference value :  7.71134e-07
 Reference value :  7.80328e-07
 Reference value :  7.98716e-07
 Reference value :  8.35491e-07
 Reference value :  9.09042e-07
 Reference value :  1.00000e-06
 Reference value :  1.00001e-06
 Reference value :  1.00003e-06
 Reference value :  1.00007e-06
 Reference value :  1.00010e-06
 Reference value :  1.00010e-06
 Reference value :  1.00011e-06
 Reference value :  1.00013e-06
 Reference value :  1.00016e-06
 Reference value :  1.00023e-06
 Reference value :  1.00036e-06
 Reference value :  1.00055e-06
 Reference value :  1.00092e-06
 Reference value :  1.00145e-06
 Reference value :  1.00198e-06
 Reference value :  1.00255e-06
 Reference value :  1.00322e-06
 Reference value :  1.00397e-06
 Reference value :  1.00472e-06
 Reference value :  1.00541e-06
 Reference value :  1.00613e-06
 Reference value :  1.00694e-06
 Reference value :  1.00770e-06
 Reference value :  1.00853e-06
 Reference value :  1.00971e-06
 Reference value :  1.01103e-06
 Reference value :  1.01329e-06
 Reference value :  1.01571e-06
 Reference value :  1.01765e-06
 Reference value :  1.01939e-06
 Reference value :  1.02066e-06
 Reference value :  1.02205e-06
 Reference value :  1.02362e-06
 Reference value :  1.02517e-06
 Reference value :  1.02703e-06
 Reference value :  1.02974e-06
 Reference value :  1.03265e-06
 Reference value :  1.03847e-06
 Reference value :  1.04760e-06
 Reference value :  1.06256e-06
 Reference value :  1.08252e-06
 Reference value :  1.11507e-06
 Reference value :  1.16795e-06
 Reference value :  1.23268e-06
 Reference value :  1.25010e-06
 Reference value :  1.25011e-06
 Reference value :  1.25013e-06
 Reference value :  1.25017e-06
 Reference value :  1.25020e-06
 Reference value :  1.25020e-06
 Reference value :  1.25020e-06
 Reference value :  1.25021e-06
 Reference value :  1.25021e-06
 Reference value :  1.25022e-06
 Reference value :  1.25025e-06
 Reference value :  1.25029e-06
 Reference value :  1.25039e-06
 Reference value :  1.25057e-06
 Reference value :  1.25090e-06
 Reference value :  1.25140e-06
 Reference value :  1.25202e-06
 Reference value :  1.25261e-06
 Reference value :  1.25328e-06
 Reference value :  1.25410e-06
 Reference value :  1.25471e-06
 Reference value :  1.25542e-06
 Reference value :  1.25626e-06
 Reference value :  1.25711e-06
 Reference value :  1.25821e-06
 Reference value :  1.25999e-06
 Reference value :  1.26194e-06
 Reference value :  1.26489e-06
 Reference value :  1.26876e-06
 Reference value :  1.27651e-06
 Reference value :  1.29201e-06
 Reference value :  1.32299e-06
 Reference value :  1.38497e-06
 Reference value :  1.50000e-06
 Reference value :  1.50001e-06
 Reference value :  1.50003e-06
 Reference value :  1.50007e-06
 Reference value :  1.50010e-06
 Reference value :  1.50010e-06
 Reference value :  1.50011e-06
 Reference value :  1.50013e-06
 Reference value :  1.50016e-06
 Reference value :  1.50023e-06
 Reference value :  1.50037e-06
 Reference value :  1.50054e-06
 Reference value :  1.50090e-06
 Reference value :  1.50139e-06
 Reference value :  1.50191e-06
 Reference value :  1.50245e-06
 Reference value :  1.50312e-06
 Reference value :  1.50378e-06
 Reference value :  1.50453e-06
 Reference value :  1.50540e-06
 Reference value :  1.50622e-06
 Reference value :  1.50751e-06
 Reference value :  1.50884e-06
 Reference value :  1.51012e-06
 Reference value :  1.51142e-06
 Reference value :  1.51306e-06
 Reference value :  1.51458e-06
 Reference value :  1.51633e-06
 Reference value :  1.51816e-06
 Reference value :  1.52181e-06
 Reference value :  1.52877e-06
 Reference value :  1.54021e-06
 Reference value :  1.56308e-06
 Reference value :  1.60883e-06
 Reference value :  1.70032e-06
 Reference value :  1.75010e-06
 Reference value :  1.75011e-06
 Reference value :  1.75013e-06
 Reference value :  1.75017e-06
 Reference value :  1.75020e-06
 Reference value :  1.75020e-06
 Reference value :  1.75020e-06
 Reference value :  1.75021e-06
 Reference value :  1.75021e-06
 Reference value :  1.75022e-06
 Reference value :  1.75025e-06
 Reference value :  1.75029e-06
 Reference value :  1.75039e-06
 Reference value :  1.75058e-06
 Reference value :  1.75091e-06
 Reference value :  1.75141e-06
 Reference value :  1.75204e-06
 Reference value :  1.75262e-06
 Reference value :  1.75330e-06
 Reference value :  1.75414e-06
 Reference value :  1.75475e-06
 Reference value :  1.75545e-06
 Reference value :  1.75613e-06
 Reference value :  1.75686e-06
 Reference value :  1.75781e-06
 Reference value :  1.75887e-06
 Reference value :  1.76098e-06
 Reference value :  1.76315e-06
 Reference value :  1.76695e-06
 Reference value :  1.77180e-06
 Reference value :  1.78150e-06
 Reference value :  1.80090e-06
 Reference value :  1.83971e-06
 Reference value :  1.91732e-06
 Reference value :  2.00000e-06
 Reference value :  2.00001e-06
 Reference value :  2.00003e-06
 Reference value :  2.00007e-06
 Reference value :  2.00010e-06
 Reference value :  2.00010e-06
 Reference value :  2.00011e-06
 Reference value :  2.00013e-06
 Reference value :  2.00016e-06
 Reference value :  2.00023e-06
 Reference value :  2.00036e-06
 Reference value :  2.00054e-06
 Reference value :  2.00089e-06
 Reference value :  2.00139e-06
 Reference value :  2.00190e-06
 Reference value :  2.00244e-06
 Reference value :  2.00310e-06
 Reference value :  2.00375e-06
 Reference value :  2.00453e-06
 Reference value :  2.00519e-06
 Reference value :  2.00590e-06
 Reference value :  2.00674e-06
 Reference value :  2.00748e-06
 Reference value :  2.00826e-06
 Reference value :  2.00933e-06
 Reference value :  2.01037e-06
 Reference value :  2.01227e-06
 Reference value :  2.01467e-06
 Reference value :  2.01664e-06
 Reference value :  2.01870e-06
 Reference value :  2.02020e-06
 Reference value :  2.02160e-06
 Reference value :  2.02284e-06
 Reference value :  2.02423e-06
 Reference value :  2.02576e-06
 Reference value :  2.02804e-06
 Reference value :  2.03019e-06
 Reference value :  2.03426e-06
 Reference value :  2.04002e-06
 Reference value :  2.04900e-06
 Reference value :  2.05856e-06
 Reference value :  2.07034e-06
 Reference value :  2.08112e-06
 Reference value :  2.08916e-06
 Reference value :  2.09687e-06
 Reference value :  2.10369e-06
 Reference value :  2.11073e-06
 Reference value :  2.11686e-06
 Reference value :  2.12498e-06
 Reference value :  2.13566e-06
 Reference value :  2.15124e-06
 Reference value :  2.17250e-06
 Reference value :  2.20478e-06
 Reference value :  2.25010e-06
 Reference value :  2.25011e-06
 Reference value :  2.25013e-06
 Reference value :  2.25017e-06
 Reference value :  2.25020e-06
 Reference value :  2.25020e-06
 Reference value :  2.25020e-06
 Reference value :  2.25021e-06
 Reference value :  2.25021e-06
 Reference value :  2.25022e-06
 Reference value :  2.25025e-06
 Reference value :  2.25029e-06
 Reference value :  2.25039e-06
 Reference value :  2.25058e-06
 Reference value :  2.25091e-06
 Reference value :  2.25140e-06
 Reference value :  2.25204e-06
 Reference value :  2.25262e-06
 Reference value :  2.25330e-06
 Reference value :  2.25414e-06
 Reference value :  2.25474e-06
 Reference value :  2.25542e-06
 Reference value :  2.25623e-06
 Reference value :  2.25721e-06
 Reference value :  2.25819e-06
 Reference value :  2.26016e-06
 Reference value :  2.26206e-06
 Reference value :  2.26520e-06
 Reference value :  2.26902e-06
 Reference value :  2.27668e-06
 Reference value :  2.29199e-06
 Reference value :  2.32261e-06
 Reference value :  2.38386e-06
 Reference value :  2.48343e-06
 Reference value :  2.50000e-06
 Reference value :  2.50001e-06
 Reference value :  2.50003e-06
 Reference value :  2.50007e-06
 Reference value :  2.50010e-06
 Reference value :  2.50010e-06
 Reference value :  2.50011e-06
 Reference value :  2.50013e-06
 Reference value :  2.50016e-06
 Reference value :  2.50023e-06
 Reference value :  2.50036e-06
 Reference value :  2.50054e-06
 Reference value :  2.50089e-06
 Reference value :  2.50139e-06
 Reference value :  2.50190e-06
 Reference value :  2.50240e-06
 Reference value :  2.50303e-06
 Reference value :  2.50367e-06
 Reference value :  2.50454e-06
 Reference value :  2.50535e-06
 Reference value :  2.50628e-06
 Reference value :  2.50760e-06
 Reference value :  2.50904e-06
 Reference value :  2.51044e-06
 Reference value :  2.51186e-06
 Reference value :  2.51315e-06
 Reference value :  2.51457e-06
 Reference value :  2.51596e-06
 Reference value :  2.51760e-06
 Reference value :  2.52088e-06
 Reference value :  2.52589e-06
 Reference value :  2.53590e-06
 Reference value :  2.55593e-06
 Reference value :  2.59598e-06
 Reference value :  2.67610e-06
 Reference value :  2.75010e-06
 Reference value :  2.75011e-06
 Reference value :  2.75013e-06
 Reference value :  2.75017e-06
 Reference value :  2.75020e-06
 Reference value :  2.75020e-06
 Reference value :  2.75020e-06
 Reference value :  2.75021e-06
 Reference value :  2.75021e-06
 Reference value :  2.75022e-06
 Reference value :  2.75025e-06
 Reference value :  2.75029e-06
 Reference value :  2.75039e-06
 Reference value :  2.75058e-06
 Reference value :  2.75091e-06
 Reference value :  2.75140e-06
 Reference value :  2.75198e-06
 Reference value :  2.75258e-06
 Reference value :  2.75323e-06
 Reference value :  2.75407e-06
 Reference value :  2.75468e-06
 Reference value :  2.75540e-06
 Reference value :  2.75605e-06
 Reference value :  2.75677e-06
 Reference value :  2.75767e-06
 Reference value :  2.75866e-06
 Reference value :  2.75968e-06
 Reference value :  2.76118e-06
 Reference value :  2.76283e-06
 Reference value :  2.76511e-06
 Reference value :  2.76792e-06
 Reference value :  2.77213e-06
 Reference value :  2.78054e-06
 Reference value :  2.79634e-06
 Reference value :  2.82793e-06
 Reference value :  2.89111e-06
 Reference value :  3.00000e-06
 Reference value :  3.00001e-06
 Reference value :  3.00003e-06
 Reference value :  3.00007e-06
 Reference value :  3.00010e-06
 Reference value :  3.00010e-06
 Reference value :  3.00011e-06
 Reference value :  3.00013e-06
 Reference value :  3.00016e-06
 Reference value :  3.00023e-06
 Reference value :  3.00036e-06
 Reference value :  3.00054e-06
 Reference value :  3.00089e-06
 Reference value :  3.00139e-06
 Reference value :  3.00190e-06
 Reference value :  3.00243e-06
 Reference value :  3.00309e-06
 Reference value :  3.00375e-06
 Reference value :  3.00452e-06
 Reference value :  3.00515e-06
 Reference value :  3.00585e-06
 Reference value :  3.00654e-06
 Reference value :  3.00723e-06
 Reference value :  3.00797e-06
 Reference value :  3.00889e-06
 Reference value :  3.00988e-06
 Reference value :  3.01155e-06
 Reference value :  3.01316e-06
 Reference value :  3.01461e-06
 Reference value :  3.01613e-06
 Reference value :  3.01769e-06
 Reference value :  3.01890e-06
 Reference value :  3.02007e-06
 Reference value :  3.02152e-06
 Reference value :  3.02289e-06
 Reference value :  3.02421e-06
 Reference value :  3.02588e-06
 Reference value :  3.02810e-06
 Reference value :  3.03039e-06
 Reference value :  3.03449e-06
 Reference value :  3.04026e-06
 Reference value :  3.04849e-06
 Reference value :  3.05758e-06
 Reference value :  3.06603e-06
 Reference value :  3.07003e-06
 Reference value :  3.07372e-06
 Reference value :  3.07767e-06
 Reference value :  3.08407e-06
 Reference value :  3.09165e-06
 Reference value :  3.10271e-06
 Reference value :  3.11873e-06
 Reference value :  3.14333e-06
 Reference value :  3.17969e-06
 Reference value :  3.21601e-06
 Reference value :  3.25010e-06
 Reference value :  3.25011e-06
 Reference value :  3.25013e-06
 Reference value :  3.25017e-06
 Reference value :  3.25020e-06
 Reference value :  3.25020e-06
 Reference value :  3.25020e-06
 Reference value :  3.25021e-06
 Reference value :  3.25021e-06
 Reference value :  3.25022e-06
 Reference value :  3.25025e-06
 Reference value :  3.25029e-06
 Reference value :  3.25039e-06
 Reference value :  3.25057e-06
 Reference value :  3.25090e-06
 Reference value :  3.25139e-06
 Reference value :  3.25202e-06
 Reference value :  3.25260e-06
 Reference value :  3.25328e-06
 Reference value :  3.25412e-06
 Reference value :  3.25474e-06
 Reference value :  3.25544e-06
 Reference value :  3.25636e-06
 Reference value :  3.25721e-06
 Reference value :  3.25833e-06
 Reference value :  3.26034e-06
 Reference value :  3.26228e-06
 Reference value :  3.26551e-06
 Reference value :  3.26947e-06
 Reference value :  3.27738e-06
 Reference value :  3.29319e-06
 Reference value :  3.32483e-06
 Reference value :  3.38809e-06
 Reference value :  3.50000e-06
 Reference value :  3.50001e-06
 Reference value :  3.50003e-06
 Reference value :  3.50007e-06
 Reference value :  3.50010e-06
 Reference value :  3.50010e-06
 Reference value :  3.50011e-06
 Reference value :  3.50013e-06
 Reference value :  3.50016e-06
 Reference value :  3.50023e-06
 Reference value :  3.50037e-06
 Reference value :  3.50054e-06
 Reference value :  3.50090e-06
 Reference value :  3.50140e-06
 Reference value :  3.50191e-06
 Reference value :  3.50245e-06
 Reference value :  3.50312e-06
 Reference value :  3.50378e-06
 Reference value :  3.50452e-06
 Reference value :  3.50537e-06
 Reference value :  3.50620e-06
 Reference value :  3.50732e-06
 Reference value :  3.50872e-06
 Reference value :  3.50990e-06
 Reference value :  3.51113e-06
 Reference value :  3.51249e-06
 Reference value :  3.51405e-06
 Reference value :  3.51570e-06
 Reference value :  3.51745e-06
 Reference value :  3.52096e-06
 Reference value :  3.52683e-06
 Reference value :  3.53803e-06
 Reference value :  3.56041e-06
 Reference value :  3.60518e-06
 Reference value :  3.69471e-06
 Reference value :  3.75010e-06
 Reference value :  3.75011e-06
 Reference value :  3.75013e-06
 Reference value :  3.75017e-06
 Reference value :  3.75020e-06
 Reference value :  3.75020e-06
 Reference value :  3.75020e-06
 Reference value :  3.75021e-06
 Reference value :  3.75021e-06
 Reference value :  3.75022e-06
 Reference value :  3.75025e-06
 Reference value :  3.75029e-06
 Reference value :  3.75039e-06
 Reference value :  3.75058e-06
 Reference value :  3.75091e-06
 Reference value :  3.75140e-06
 Reference value :  3.75198e-06
 Reference value :  3.75258e-06
 Reference value :  3.75322e-06
 Reference value :  3.75406e-06
 Reference value :  3.75468e-06
 Reference value :  3.75539e-06
 Reference value :  3.75604e-06
 Reference value :  3.75676e-06
 Reference value :  3.75766e-06
 Reference value :  3.75865e-06
 Reference value :  3.76064e-06
 Reference value :  3.76273e-06
 Reference value :  3.76627e-06
 Reference value :  3.77062e-06
 Reference value :  3.77932e-06
 Reference value :  3.79672e-06
 Reference value :  3.83151e-06
 Reference value :  3.90110e-06
 Reference value :  4.00000e-06
 Reference value :  4.00001e-06
 Reference value :  4.00003e-06
 Reference value :  4.00007e-06
 Reference value :  4.00010e-06
 Reference value :  4.00010e-06
 Reference value :  4.00011e-06
 Reference value :  4.00013e-06
 Reference value :  4.00016e-06
 Reference value :  4.00023e-06
 Reference value :  4.00036e-06
 Reference value :  4.00054e-06
 Reference value :  4.00089e-06
 Reference value :  4.00139e-06
 Reference value :  4.00190e-06
 Reference value :  4.00243e-06
 Reference value :  4.00310e-06
 Reference value :  4.00375e-06
 Reference value :  4.00453e-06
 Reference value :  4.00519e-06
 Reference value :  4.00590e-06
 Reference value :  4.00678e-06
 Reference value :  4.00756e-06
 Reference value :  4.00837e-06
 Reference value :  4.00945e-06
 Reference value :  4.01059e-06
 Reference value :  4.01261e-06
 Reference value :  4.01505e-06
 Reference value :  4.01692e-06
 Reference value :  4.01897e-06
 Reference value :  4.02064e-06
 Reference value :  4.02241e-06
 Reference value :  4.02416e-06
 Reference value :  4.02628e-06
 Reference value :  4.02820e-06
 Reference value :  4.03108e-06
 Reference value :  4.03485e-06
 Reference value :  4.04124e-06
 Reference value :  4.04873e-06
 Reference value :  4.05659e-06
 Reference value :  4.06226e-06
 Reference value :  4.06806e-06
 Reference value :  4.07322e-06
 Reference value :  4.07924e-06
 Reference value :  4.08685e-06
 Reference value :  4.09315e-06
 Reference value :  4.10067e-06
 Reference value :  4.11180e-06
 Reference value :  4.12839e-06
 Reference value :  4.15162e-06
 Reference value :  4.18760e-06
 Reference value :  4.24780e-06
 Reference value :  4.25010e-06
 Reference value :  4.25011e-06
 Reference value :  4.25013e-06
 Reference value :  4.25017e-06
 Reference value :  4.25020e-06
 Reference value :  4.25020e-06
 Reference value :  4.25020e-06
 Reference value :  4.25021e-06
 Reference value :  4.25021e-06
 Reference value :  4.25022e-06
 Reference value :  4.25025e-06
 Reference value :  4.25029e-06
 Reference value :  4.25039e-06
 Reference value :  4.25057e-06
 Reference value :  4.25090e-06
 Reference value :  4.25139e-06
 Reference value :  4.25202e-06
 Reference value :  4.25260e-06
 Reference value :  4.25328e-06
 Reference value :  4.25412e-06
 Reference value :  4.25472e-06
 Reference value :  4.25540e-06
 Reference value :  4.25624e-06
 Reference value :  4.25721e-06
 Reference value :  4.25821e-06
 Reference value :  4.26019e-06
 Reference value :  4.26210e-06
 Reference value :  4.26524e-06
 Reference value :  4.26909e-06
 Reference value :  4.27679e-06
 Reference value :  4.29218e-06
 Reference value :  4.32297e-06
 Reference value :  4.38455e-06
 Reference value :  4.50000e-06
 Reference value :  4.50001e-06
 Reference value :  4.50003e-06
 Reference value :  4.50007e-06
 Reference value :  4.50010e-06
 Reference value :  4.50010e-06
 Reference value :  4.50011e-06
 Reference value :  4.50013e-06
 Reference value :  4.50016e-06
 Reference value :  4.50023e-06
 Reference value :  4.50037e-06
 Reference value :  4.50054e-06
 Reference value :  4.50090e-06
 Reference value :  4.50139e-06
 Reference value :  4.50191e-06
 Reference value :  4.50242e-06
 Reference value :  4.50304e-06
 Reference value :  4.50369e-06
 Reference value :  4.50456e-06
 Reference value :  4.50534e-06
 Reference value :  4.50628e-06
 Reference value :  4.50743e-06
 Reference value :  4.50870e-06
 Reference value :  4.50990e-06
 Reference value :  4.51112e-06
 Reference value :  4.51229e-06
 Reference value :  4.51360e-06
 Reference value :  4.51493e-06
 Reference value :  4.51644e-06
 Reference value :  4.51946e-06
 Reference value :  4.52550e-06
 Reference value :  4.53607e-06
 Reference value :  4.55720e-06
 Reference value :  4.59947e-06
 Reference value :  4.68401e-06
 Reference value :  4.75010e-06
 Reference value :  4.75011e-06
 Reference value :  4.75013e-06
 Reference value :  4.75017e-06
 Reference value :  4.75020e-06
 Reference value :  4.75020e-06
 Reference value :  4.75020e-06
 Reference value :  4.75021e-06
 Reference value :  4.75021e-06
 Reference value :  4.75022e-06
 Reference value :  4.75025e-06
 Reference value :  4.75029e-06
 Reference value :  4.75039e-06
 Reference value :  4.75058e-06
 Reference value :  4.75091e-06
 Reference value :  4.75140e-06
 Reference value :  4.75204e-06
 Reference value :  4.75261e-06
 Reference value :  4.75330e-06
 Reference value :  4.75415e-06
 Reference value :  4.75476e-06
 Reference value :  4.75545e-06
 Reference value :  4.75615e-06
 Reference value :  4.75689e-06
 Reference value :  4.75788e-06
 Reference value :  4.75894e-06
 Reference value :  4.76007e-06
 Reference value :  4.76153e-06
 Reference value :  4.76365e-06
 Reference value :  4.76566e-06
 Reference value :  4.76933e-06
 Reference value :  4.77392e-06
 Reference value :  4.78308e-06
 Reference value :  4.80141e-06
 Reference value :  4.83807e-06
 Reference value :  4.91139e-06
 Reference value :  5.00000e-06
 Reference value :  5.00001e-06
 Reference value :  5.00003e-06
 Reference value :  5.00007e-06
 Reference value :  5.00010e-06
 Reference value :  5.00010e-06
 Reference value :  5.00011e-06
 Reference value :  5.00013e-06
 Reference value :  5.00016e-06
 Reference value :  5.00023e-06
 Reference value :  5.00036e-06
 Reference value :  5.00054e-06
 Reference value :  5.00089e-06
 Reference value :  5.00138e-06
 Reference value :  5.00189e-06
 Reference value :  5.00243e-06
 Reference value :  5.00309e-06
 Reference value :  5.00374e-06
 Reference value :  5.00451e-06
 Reference value :  5.00514e-06
 Reference value :  5.00584e-06
 Reference value :  5.00652e-06
 Reference value :  5.00720e-06
 Reference value :  5.00792e-06
 Reference value :  5.00898e-06
 Reference value :  5.00994e-06
 Reference value :  5.01179e-06
 Reference value :  5.01294e-06
 Reference value :  5.01429e-06
 Reference value :  5.01560e-06
 Reference value :  5.01715e-06
 Reference value :  5.01864e-06
 Reference value :  5.02003e-06
 Reference value :  5.02153e-06
 Reference value :  5.02288e-06
 Reference value :  5.02404e-06
 Reference value :  5.02525e-06
 Reference value :  5.02691e-06
 Reference value :  5.02846e-06
 Reference value :  5.03154e-06
 Reference value :  5.03534e-06
 Reference value :  5.04169e-06
 Reference value :  5.05039e-06
 Reference value :  5.06479e-06
 Reference value :  5.07756e-06
 Reference value :  5.09158e-06
 Reference value :  5.10862e-06
 Reference value :  5.14270e-06
 Reference value :  5.20767e-06
 Reference value :  5.25010e-06
 Reference value :  5.25011e-06
 Reference value :  5.25013e-06
 Reference value :  5.25017e-06
 Reference value :  5.25020e-06
 Reference value :  5.25020e-06
 Reference value :  5.25020e-06
 Reference value :  5.25021e-06
 Reference value :  5.25021e-06
 Reference value :  5.25022e-06
 Reference value :  5.25025e-06
 Reference value :  5.25029e-06
 Reference value :  5.25039e-06
 Reference value :  5.25058e-06
 Reference value :  5.25091e-06
 Reference value :  5.25140e-06
 Reference value :  5.25203e-06
 Reference value :  5.25261e-06
 Reference value :  5.25330e-06
 Reference value :  5.25414e-06
 Reference value :  5.25475e-06
 Reference value :  5.25546e-06
 Reference value :  5.25636e-06
 Reference value :  5.25725e-06
 Reference value :  5.25833e-06
 Reference value :  5.26025e-06
 Reference value :  5.26221e-06
 Reference value :  5.26540e-06
 Reference value :  5.26936e-06
 Reference value :  5.27727e-06
 Reference value :  5.29310e-06
 Reference value :  5.32475e-06
 Reference value :  5.38806e-06
 Reference value :  5.50000e-06
 Reference value :  5.50001e-06
 Reference value :  5.50003e-06
 Reference value :  5.50007e-06
 Reference value :  5.50010e-06
 Reference value :  5.50010e-06
 Reference value :  5.50011e-06
 Reference value :  5.50013e-06
 Reference value :  5.50016e-06
 Reference value :  5.50023e-06
 Reference value :  5.50037e-06
 Reference value :  5.50054e-06
 Reference value :  5.50090e-06
 Reference value :  5.50139e-06
 Reference value :  5.50191e-06
 Reference value :  5.50245e-06
 Reference value :  5.50312e-06
 Reference value :  5.50378e-06
 Reference value :  5.50452e-06
 Reference value :  5.50540e-06
 Reference value :  5.50622e-06
 Reference value :  5.50751e-06
 Reference value :  5.50884e-06
 Reference value :  5.51008e-06
 Reference value :  5.51151e-06
 Reference value :  5.51284e-06
 Reference value :  5.51422e-06
 Reference value :  5.51576e-06
 Reference value :  5.51750e-06
 Reference value :  5.52058e-06
 Reference value :  5.52510e-06
 Reference value :  5.53370e-06
 Reference value :  5.54968e-06
 Reference value :  5.57937e-06
 Reference value :  5.63847e-06
 Reference value :  5.75010e-06
 Reference value :  5.75011e-06
 Reference value :  5.75013e-06
 Reference value :  5.75017e-06
 Reference value :  5.75020e-06
 Reference value :  5.75020e-06
 Reference value :  5.75020e-06
 Reference value :  5.75021e-06
 Reference value :  5.75021e-06
 Reference value :  5.75022e-06
 Reference value :  5.75025e-06
 Reference value :  5.75029e-06
 Reference value :  5.75039e-06
 Reference value :  5.75058e-06
 Reference value :  5.75091e-06
 Reference value :  5.75141e-06
 Reference value :  5.75204e-06
 Reference value :  5.75261e-06
 Reference value :  5.75330e-06
 Reference value :  5.75414e-06
 Reference value :  5.75474e-06
 Reference value :  5.75544e-06
 Reference value :  5.75612e-06
 Reference value :  5.75685e-06
 Reference value :  5.75779e-06
 Reference value :  5.75884e-06
 Reference value :  5.76093e-06
 Reference value :  5.76309e-06
 Reference value :  5.76685e-06
 Reference value :  5.77163e-06
 Reference value :  5.78118e-06
 Reference value :  5.80028e-06
 Reference value :  5.83849e-06
 Reference value :  5.91489e-06
 Reference value :  6.00000e-06
 Reference value :  6.00001e-06
 Reference value :  6.00003e-06
 Reference value :  6.00007e-06
 Reference value :  6.00010e-06
 Reference value :  6.00010e-06
 Reference value :  6.00011e-06
 Reference value :  6.00013e-06
 Reference value :  6.00016e-06
 Reference value :  6.00023e-06
 Reference value :  6.00036e-06
 Reference value :  6.00054e-06
 Reference value :  6.00089e-06
 Reference value :  6.00139e-06
 Reference value :  6.00190e-06
 Reference value :  6.00243e-06
 Reference value :  6.00310e-06
 Reference value :  6.00375e-06
 Reference value :  6.00453e-06
 Reference value :  6.00519e-06
 Reference value :  6.00590e-06
 Reference value :  6.00668e-06
 Reference value :  6.00744e-06
 Reference value :  6.00827e-06
 Reference value :  6.00942e-06
 Reference value :  6.01067e-06
 Reference value :  6.01277e-06
 Reference value :  6.01535e-06
 Reference value :  6.01727e-06
 Reference value :  6.01939e-06
 Reference value :  6.02101e-06
 Reference value :  6.02280e-06
 Reference value :  6.02456e-06
 Reference value :  6.02649e-06
 Reference value :  6.02863e-06
 Reference value :  6.03105e-06
 Reference value :  6.03466e-06
 Reference value :  6.03948e-06
 Reference value :  6.04614e-06
 Reference value :  6.05317e-06
 Reference value :  6.06107e-06
 Reference value :  6.06968e-06
 Reference value :  6.07735e-06
 Reference value :  6.08431e-06
 Reference value :  6.09288e-06
 Reference value :  6.10208e-06
 Reference value :  6.11307e-06
 Reference value :  6.13505e-06
 Reference value :  6.17903e-06
 Reference value :  6.23745e-06
 Reference value :  6.25010e-06
 Reference value :  6.25011e-06
 Reference value :  6.25013e-06
 Reference value :  6.25017e-06
 Reference value :  6.25020e-06
 Reference value :  6.25020e-06
 Reference value :  6.25020e-06
 Reference value :  6.25021e-06
 Reference value :  6.25021e-06
 Reference value :  6.25022e-06
 Reference value :  6.25025e-06
 Reference value :  6.25029e-06
 Reference value :  6.25039e-06
 Reference value :  6.25057e-06
 Reference value :  6.25090e-06
 Reference value :  6.25139e-06
 Reference value :  6.25202e-06
 Reference value :  6.25260e-06
 Reference value :  6.25328e-06
 Reference value :  6.25412e-06
 Reference value :  6.25473e-06
 Reference value :  6.25544e-06
 Reference value :  6.25637e-06
 Reference value :  6.25724e-06
 Reference value :  6.25836e-06
 Reference value :  6.26036e-06
 Reference value :  6.26232e-06
 Reference value :  6.26558e-06
 Reference value :  6.26957e-06
 Reference value :  6.27756e-06
 Reference value :  6.29354e-06
 Reference value :  6.32549e-06
 Reference value :  6.38940e-06
 Reference value :  6.50000e-06
 Reference value :  6.50001e-06
 Reference value :  6.50003e-06
 Reference value :  6.50007e-06
 Reference value :  6.50010e-06
 Reference value :  6.50010e-06
 Reference value :  6.50011e-06
 Reference value :  6.50013e-06
 Reference value :  6.50016e-06
 Reference value :  6.50023e-06
 Reference value :  6.50037e-06
 Reference value :  6.50054e-06
 Reference value :  6.50090e-06
 Reference value :  6.50139e-06
 Reference value :  6.50191e-06
 Reference value :  6.50245e-06
 Reference value :  6.50311e-06
 Reference value :  6.50378e-06
 Reference value :  6.50453e-06
 Reference value :  6.50538e-06
 Reference value :  6.50621e-06
 Reference value :  6.50735e-06
 Reference value :  6.50873e-06
 Reference value :  6.50992e-06
 Reference value :  6.51116e-06
 Reference value :  6.51229e-06
 Reference value :  6.51360e-06
 Reference value :  6.51492e-06
 Reference value :  6.51642e-06
 Reference value :  6.51943e-06
 Reference value :  6.52546e-06
 Reference value :  6.53618e-06
 Reference value :  6.55763e-06
 Reference value :  6.60051e-06
 Reference value :  6.68629e-06
 Reference value :  6.75010e-06
 Reference value :  6.75011e-06
 Reference value :  6.75013e-06
 Reference value :  6.75017e-06
 Reference value :  6.75020e-06
 Reference value :  6.75020e-06
 Reference value :  6.75020e-06
 Reference value :  6.75021e-06
 Reference value :  6.75021e-06
 Reference value :  6.75022e-06
 Reference value :  6.75025e-06
 Reference value :  6.75029e-06
 Reference value :  6.75039e-06
 Reference value :  6.75058e-06
 Reference value :  6.75091e-06
 Reference value :  6.75141e-06
 Reference value :  6.75204e-06
 Reference value :  6.75262e-06
 Reference value :  6.75330e-06
 Reference value :  6.75414e-06
 Reference value :  6.75475e-06
 Reference value :  6.75544e-06
 Reference value :  6.75613e-06
 Reference value :  6.75686e-06
 Reference value :  6.75781e-06
 Reference value :  6.75887e-06
 Reference value :  6.76098e-06
 Reference value :  6.76315e-06
 Reference value :  6.76695e-06
 Reference value :  6.77180e-06
 Reference value :  6.78149e-06
 Reference value :  6.80088e-06
 Reference value :  6.83966e-06
 Reference value :  6.91721e-06
 Reference value :  7.00000e-06
 Reference value :  7.00001e-06
 Reference value :  7.00003e-06
 Reference value :  7.00007e-06
 Reference value :  7.00010e-06
 Reference value :  7.00010e-06
 Reference value :  7.00011e-06
 Reference value :  7.00013e-06
 Reference value :  7.00016e-06
 Reference value :  7.00023e-06
 Reference value :  7.00036e-06
 Reference value :  7.00054e-06
 Reference value :  7.00089e-06
 Reference value :  7.00139e-06
 Reference value :  7.00190e-06
 Reference value :  7.00243e-06
 Reference value :  7.00310e-06
 Reference value :  7.00375e-06
 Reference value :  7.00453e-06
 Reference value :  7.00519e-06
 Reference value :  7.00590e-06
 Reference value :  7.00670e-06
 Reference value :  7.00746e-06
 Reference value :  7.00829e-06
 Reference value :  7.00952e-06
 Reference value :  7.01070e-06
 Reference value :  7.01288e-06
 Reference value :  7.01546e-06
 Reference value :  7.01740e-06
 Reference value :  7.01954e-06
 Reference value :  7.02110e-06
 Reference value :  7.02277e-06
 Reference value :  7.02452e-06
 Reference value :  7.02639e-06
 Reference value :  7.02844e-06
 Reference value :  7.03088e-06
 Reference value :  7.03447e-06
 Reference value :  7.03868e-06
 Reference value :  7.04301e-06
 Reference value :  7.04991e-06
 Reference value :  7.06056e-06
 Reference value :  7.08097e-06
 Reference value :  7.11059e-06
 Reference value :  7.16432e-06
 Reference value :  7.24697e-06
 Reference value :  7.25010e-06
 Reference value :  7.25011e-06
 Reference value :  7.25013e-06
 Reference value :  7.25017e-06
 Reference value :  7.25020e-06
 Reference value :  7.25020e-06
 Reference value :  7.25020e-06
 Reference value :  7.25021e-06
 Reference value :  7.25021e-06
 Reference value :  7.25022e-06
 Reference value :  7.25025e-06
 Reference value :  7.25029e-06
 Reference value :  7.25039e-06
 Reference value :  7.25058e-06
 Reference value :  7.25092e-06
 Reference value :  7.25141e-06
 Reference value :  7.25198e-06
 Reference value :  7.25258e-06
 Reference value :  7.25322e-06
 Reference value :  7.25406e-06
 Reference value :  7.25468e-06
 Reference value :  7.25539e-06
 Reference value :  7.25620e-06
 Reference value :  7.25704e-06
 Reference value :  7.25815e-06
 Reference value :  7.25986e-06
 Reference value :  7.26181e-06
 Reference value :  7.26464e-06
 Reference value :  7.26851e-06
 Reference value :  7.27625e-06
 Reference value :  7.29173e-06
 Reference value :  7.32151e-06
 Reference value :  7.38107e-06
 Reference value :  7.50000e-06
 Reference value :  7.50001e-06
 Reference value :  7.50003e-06
 Reference value :  7.50007e-06
 Reference value :  7.50010e-06
 Reference value :  7.50010e-06
 Reference value :  7.50011e-06
 Reference value :  7.50013e-06
 Reference value :  7.50016e-06
 Reference value :  7.50023e-06
 Reference value :  7.50037e-06
 Reference value :  7.50054e-06
 Reference value :  7.50090e-06
 Reference value :  7.50142e-06
 Reference value :  7.50194e-06
 Reference value :  7.50250e-06
 Reference value :  7.50316e-06
 Reference value :  7.50386e-06
 Reference value :  7.50459e-06
 Reference value :  7.50542e-06
 Reference value :  7.50628e-06
 Reference value :  7.50746e-06
 Reference value :  7.50889e-06
 Reference value :  7.51031e-06
 Reference value :  7.51159e-06
 Reference value :  7.51279e-06
 Reference value :  7.51415e-06
 Reference value :  7.51552e-06
 Reference value :  7.51710e-06
 Reference value :  7.52025e-06
 Reference value :  7.52502e-06
 Reference value :  7.53456e-06
 Reference value :  7.55364e-06
 Reference value :  7.59180e-06
 Reference value :  7.66812e-06
 Reference value :  7.75010e-06
 Reference value :  7.75011e-06
 Reference value :  7.75013e-06
 Reference value :  7.75017e-06
 Reference value :  7.75020e-06
 Reference value :  7.75020e-06
 Reference value :  7.75020e-06
 Reference value :  7.75021e-06
 Reference value :  7.75021e-06
 Reference value :  7.75022e-06
 Reference value :  7.75025e-06
 Reference value :  7.75029e-06
 Reference value :  7.75039e-06
 Reference value :  7.75058e-06
 Reference value :  7.75092e-06
 Reference value :  7.75141e-06
 Reference value :  7.75198e-06
 Reference value :  7.75258e-06
 Reference value :  7.75322e-06
 Reference value :  7.75406e-06
 Reference value :  7.75466e-06
 Reference value :  7.75537e-06
 Reference value :  7.75602e-06
 Reference value :  7.75674e-06
 Reference value :  7.75764e-06
 Reference value :  7.75865e-06
 Reference value :  7.76066e-06
 Reference value :  7.76277e-06
 Reference value :  7.76636e-06
 Reference value :  7.77080e-06
 Reference value :  7.77967e-06
 Reference value :  7.79742e-06
 Reference value :  7.83290e-06
 Reference value :  7.90388e-06
 Reference value :  8.00000e-06
 Reference value :  8.00001e-06
 Reference value :  8.00003e-06
 Reference value :  8.00007e-06
 Reference value :  8.00010e-06
 Reference value :  8.00010e-06
 Reference value :  8.00011e-06
 Reference value :  8.00013e-06
 Reference value :  8.00016e-06
 Reference value :  8.00023e-06
 Reference value :  8.00036e-06
 Reference value :  8.00054e-06
 Reference value :  8.00090e-06
 Reference value :  8.00141e-06
 Reference value :  8.00193e-06
 Reference value :  8.00248e-06
 Reference value :  8.00314e-06
 Reference value :  8.00383e-06
 Reference value :  8.00463e-06
 Reference value :  8.00531e-06
 Reference value :  8.00603e-06
 Reference value :  8.00682e-06
 Reference value :  8.00759e-06
 Reference value :  8.00843e-06
 Reference value :  8.00958e-06
 Reference value :  8.01089e-06
 Reference value :  8.01303e-06
 Reference value :  8.01567e-06
 Reference value :  8.01766e-06
 Reference value :  8.01986e-06
 Reference value :  8.02201e-06
 Reference value :  8.02449e-06
 Reference value :  8.02834e-06
 Reference value :  8.03343e-06
 Reference value :  8.04218e-06
 Reference value :  8.05631e-06
 Reference value :  8.08023e-06
 Reference value :  8.12249e-06
 Reference value :  8.19489e-06
 Reference value :  8.25010e-06
 Reference value :  8.25011e-06
 Reference value :  8.25013e-06
 Reference value :  8.25017e-06
 Reference value :  8.25020e-06
 Reference value :  8.25020e-06
 Reference value :  8.25020e-06
 Reference value :  8.25021e-06
 Reference value :  8.25021e-06
 Reference value :  8.25022e-06
 Reference value :  8.25025e-06
 Reference value :  8.25029e-06
 Reference value :  8.25039e-06
 Reference value :  8.25058e-06
 Reference value :  8.25096e-06
 Reference value :  8.25143e-06
 Reference value :  8.25198e-06
 Reference value :  8.25258e-06
 Reference value :  8.25322e-06
 Reference value :  8.25405e-06
 Reference value :  8.25495e-06
 Reference value :  8.25612e-06
 Reference value :  8.25752e-06
 Reference value :  8.25885e-06
 Reference value :  8.26110e-06
 Reference value :  8.26350e-06
 Reference value :  8.26727e-06
 Reference value :  8.27288e-06
 Reference value :  8.28409e-06
 Reference value :  8.30652e-06
 Reference value :  8.35137e-06
 Reference value :  8.44107e-06
 Reference value :  8.50000e-06
 Reference value :  8.50001e-06
 Reference value :  8.50003e-06
 Reference value :  8.50007e-06
 Reference value :  8.50010e-06
 Reference value :  8.50010e-06
 Reference value :  8.50011e-06
 Reference value :  8.50013e-06
 Reference value :  8.50016e-06
 Reference value :  8.50023e-06
 Reference value :  8.50036e-06
 Reference value :  8.50062e-06
 Reference value :  8.50102e-06
 Reference value :  8.50173e-06
 Reference value :  8.50238e-06
 Reference value :  8.50294e-06
 Reference value :  8.50362e-06
 Reference value :  8.50426e-06
 Reference value :  8.50502e-06
 Reference value :  8.50586e-06
 Reference value :  8.50680e-06
 Reference value :  8.50827e-06
 Reference value :  8.50963e-06
 Reference value :  8.51111e-06
 Reference value :  8.51253e-06
 Reference value :  8.51419e-06
 Reference value :  8.51634e-06
 Reference value :  8.51873e-06
 Reference value :  8.52351e-06
 Reference value :  8.52896e-06
 Reference value :  8.53279e-06
 Reference value :  8.53599e-06
 Reference value :  8.53877e-06
 Reference value :  8.54120e-06
 Reference value :  8.54315e-06
 Reference value :  8.54510e-06
 Reference value :  8.54694e-06
 Reference value :  8.54870e-06
 Reference value :  8.55122e-06
 Reference value :  8.55401e-06
 Reference value :  8.55676e-06
 Reference value :  8.56145e-06
 Reference value :  8.56631e-06
 Reference value :  8.57488e-06
 Reference value :  8.58330e-06
 Reference value :  8.59919e-06
 Reference value :  8.61514e-06
 Reference value :  8.63248e-06
 Reference value :  8.65110e-06
 Reference value :  8.67916e-06
 Reference value :  8.71786e-06
 Reference value :  8.75010e-06
 Reference value :  8.75011e-06
 Reference value :  8.75013e-06
 Reference value :  8.75017e-06
 Reference value :  8.75020e-06
 Reference value :  8.75020e-06
 Reference value :  8.75020e-06
 Reference value :  8.75021e-06
 Reference value :  8.75021e-06
 Reference value :  8.75022e-06
 Reference value :  8.75025e-06
 Reference value :  8.75029e-06
 Reference value :  8.75039e-06
 Reference value :  8.75058e-06
 Reference value :  8.75096e-06
 Reference value :  8.75143e-06
 Reference value :  8.75199e-06
 Reference value :  8.75258e-06
 Reference value :  8.75323e-06
 Reference value :  8.75405e-06
 Reference value :  8.75469e-06
 Reference value :  8.75543e-06
 Reference value :  8.75619e-06
 Reference value :  8.75698e-06
 Reference value :  8.75812e-06
 Reference value :  8.75960e-06
 Reference value :  8.76163e-06
 Reference value :  8.76426e-06
 Reference value :  8.76819e-06
 Reference value :  8.77573e-06
 Reference value :  8.79081e-06
 Reference value :  8.82050e-06
 Reference value :  8.87967e-06
 Reference value :  8.96264e-06
 Reference value :  9.00000e-06
 Reference value :  9.00001e-06
 Reference value :  9.00003e-06
 Reference value :  9.00007e-06
 Reference value :  9.00010e-06
 Reference value :  9.00010e-06
 Reference value :  9.00011e-06
 Reference value :  9.00013e-06
 Reference value :  9.00016e-06
 Reference value :  9.00023e-06
 Reference value :  9.00036e-06
 Reference value :  9.00055e-06
 Reference value :  9.00092e-06
 Reference value :  9.00145e-06
 Reference value :  9.00198e-06
 Reference value :  9.00255e-06
 Reference value :  9.00322e-06
 Reference value :  9.00397e-06
 Reference value :  9.00467e-06
 Reference value :  9.00550e-06
 Reference value :  9.00638e-06
 Reference value :  9.00744e-06
 Reference value :  9.00896e-06
 Reference value :  9.01080e-06
 Reference value :  9.01260e-06
 Reference value :  9.01460e-06
 Reference value :  9.01632e-06
 Reference value :  9.01812e-06
 Reference value :  9.02037e-06
 Reference value :  9.02281e-06
 Reference value :  9.02719e-06
 Reference value :  9.03394e-06
 Reference value :  9.04513e-06
 Reference value :  9.06751e-06
 Reference value :  9.11228e-06
 Reference value :  9.19932e-06
 Reference value :  9.25010e-06
 Reference value :  9.25011e-06
 Reference value :  9.25013e-06
 Reference value :  9.25017e-06
 Reference value :  9.25020e-06
 Reference value :  9.25020e-06
 Reference value :  9.25020e-06
 Reference value :  9.25021e-06
 Reference value :  9.25021e-06
 Reference value :  9.25022e-06
 Reference value :  9.25025e-06
 Reference value :  9.25029e-06
 Reference value :  9.25039e-06
 Reference value :  9.25057e-06
 Reference value :  9.25094e-06
 Reference value :  9.25142e-06
 Reference value :  9.25198e-06
 Reference value :  9.25259e-06
 Reference value :  9.25324e-06
 Reference value :  9.25411e-06
 Reference value :  9.25473e-06
 Reference value :  9.25545e-06
 Reference value :  9.25612e-06
 Reference value :  9.25686e-06
 Reference value :  9.25779e-06
 Reference value :  9.25883e-06
 Reference value :  9.26092e-06
 Reference value :  9.26308e-06
 Reference value :  9.26682e-06
 Reference value :  9.27155e-06
 Reference value :  9.28101e-06
 Reference value :  9.29993e-06
 Reference value :  9.33776e-06
 Reference value :  9.41343e-06
 Reference value :  9.50000e-06
 Reference value :  9.50001e-06
 Reference value :  9.50003e-06
 Reference value :  9.50007e-06
 Reference value :  9.50010e-06
 Reference value :  9.50010e-06
 Reference value :  9.50011e-06
 Reference value :  9.50013e-06
 Reference value :  9.50016e-06
 Reference value :  9.50023e-06
 Reference value :  9.50036e-06
 Reference value :  9.50055e-06
 Reference value :  9.50092e-06
 Reference value :  9.50145e-06
 Reference value :  9.50198e-06
 Reference value :  9.50255e-06
 Reference value :  9.50322e-06
 Reference value :  9.50397e-06
 Reference value :  9.50472e-06
 Reference value :  9.50541e-06
 Reference value :  9.50613e-06
 Reference value :  9.50694e-06
 Reference value :  9.50770e-06
 Reference value :  9.50853e-06
 Reference value :  9.50971e-06
 Reference value :  9.51103e-06
 Reference value :  9.51330e-06
 Reference value :  9.51572e-06
 Reference value :  9.51764e-06
 Reference value :  9.51941e-06
 Reference value :  9.52066e-06
 Reference value :  9.52204e-06
 Reference value :  9.52361e-06
 Reference value :  9.52515e-06
 Reference value :  9.52700e-06
 Reference value :  9.52970e-06
 Reference value :  9.53257e-06
 Reference value :  9.53829e-06
 Reference value :  9.54723e-06
 Reference value :  9.56231e-06
 Reference value :  9.58188e-06
 Reference value :  9.61432e-06
 Reference value :  9.66563e-06
 Reference value :  9.73074e-06
 Reference value :  9.75010e-06
 Reference value :  9.75011e-06
 Reference value :  9.75013e-06
 Reference value :  9.75017e-06
 Reference value :  9.75020e-06
 Reference value :  9.75020e-06
 Reference value :  9.75020e-06
 Reference value :  9.75021e-06
 Reference value :  9.75021e-06
 Reference value :  9.75022e-06
 Reference value :  9.75025e-06
 Reference value :  9.75029e-06
 Reference value :  9.75039e-06
 Reference value :  9.75057e-06
 Reference value :  9.75090e-06
 Reference value :  9.75140e-06
 Reference value :  9.75203e-06
 Reference value :  9.75261e-06
 Reference value :  9.75328e-06
 Reference value :  9.75411e-06
 Reference value :  9.75472e-06
 Reference value :  9.75543e-06
 Reference value :  9.75627e-06
 Reference value :  9.75712e-06
 Reference value :  9.75823e-06
 Reference value :  9.76003e-06
 Reference value :  9.76197e-06
 Reference value :  9.76497e-06
 Reference value :  9.76884e-06
 Reference value :  9.77660e-06
 Reference value :  9.79211e-06
 Reference value :  9.82313e-06
 Reference value :  9.88516e-06
 Reference value :  1.00000e-05
 Reference value :  1.00000e-05
 Reference value :  1.00000e-05
 Reference value :  1.00001e-05
 Reference value :  1.00001e-05
 Reference value :  1.00001e-05
 Reference value :  1.00001e-05
 Reference value :  1.00001e-05
 Reference value :  1.00002e-05
 Reference value :  1.00002e-05
 Reference value :  1.00004e-05
 Reference value :  1.00005e-05
 Reference value :  1.00009e-05
 Reference value :  1.00014e-05
 Reference value :  1.00019e-05
 Reference value :  1.00025e-05
 Reference value :  1.00031e-05
 Reference value :  1.00038e-05
 Reference value :  1.00045e-05
 Reference value :  1.00054e-05
 Reference value :  1.00062e-05
 Reference value :  1.00075e-05
 Reference value :  1.00088e-05
 Reference value :  1.00101e-05
 Reference value :  1.00114e-05
 Reference value :  1.00131e-05
 Reference value :  1.00146e-05
 Reference value :  1.00165e-05
 Reference value :  1.00183e-05
 Reference value :  1.00218e-05
 Reference value :  1.00289e-05
 Reference value :  1.00399e-05
 Reference value :  1.00617e-05
 Reference value :  1.01053e-05
 Reference value :  1.01926e-05
 Reference value :  1.02501e-05
 Reference value :  1.02501e-05
 Reference value :  1.02501e-05
 Reference value :  1.02502e-05
 Reference value :  1.02502e-05
 Reference value :  1.02502e-05
 Reference value :  1.02502e-05
 Reference value :  1.02502e-05
 Reference value :  1.02502e-05
 Reference value :  1.02502e-05
 Reference value :  1.02502e-05
 Reference value :  1.02503e-05
 Reference value :  1.02504e-05
 Reference value :  1.02506e-05
 Reference value :  1.02509e-05
 Reference value :  1.02514e-05
 Reference value :  1.02520e-05
 Reference value :  1.02526e-05
 Reference value :  1.02532e-05
 Reference value :  1.02541e-05
 Reference value :  1.02547e-05
 Reference value :  1.02554e-05
 Reference value :  1.02560e-05
 Reference value :  1.02568e-05
 Reference value :  1.02577e-05
 Reference value :  1.02587e-05
 Reference value :  1.02607e-05
 Reference value :  1.02628e-05
 Reference value :  1.02663e-05
 Reference value :  1.02707e-05
 Reference value :  1.02795e-05
 Reference value :  1.02969e-05
 Reference value :  1.03319e-05
 Reference value :  1.04019e-05
 Reference value :  1.05000e-05
 Reference value :  1.05000e-05
 Reference value :  1.05000e-05
 Reference value :  1.05001e-05
 Reference value :  1.05001e-05
 Reference value :  1.05001e-05
 Reference value :  1.05001e-05
 Reference value :  1.05001e-05
 Reference value :  1.05002e-05
 Reference value :  1.05002e-05
 Reference value :  1.05004e-05
 Reference value :  1.05005e-05
 Reference value :  1.05009e-05
 Reference value :  1.05014e-05
 Reference value :  1.05019e-05
 Reference value :  1.05024e-05
 Reference value :  1.05031e-05
 Reference value :  1.05038e-05
 Reference value :  1.05045e-05
 Reference value :  1.05052e-05
 Reference value :  1.05059e-05
 Reference value :  1.05067e-05
 Reference value :  1.05075e-05
 Reference value :  1.05083e-05
 Reference value :  1.05093e-05
 Reference value :  1.05104e-05
 Reference value :  1.05123e-05
 Reference value :  1.05147e-05
 Reference value :  1.05166e-05
 Reference value :  1.05187e-05
 Reference value :  1.05202e-05
 Reference value :  1.05216e-05
 Reference value :  1.05228e-05
 Reference value :  1.05242e-05
 Reference value :  1.05257e-05
 Reference value :  1.05280e-05
 Reference value :  1.05301e-05
 Reference value :  1.05342e-05
 Reference value :  1.05399e-05
 Reference value :  1.05486e-05
 Reference value :  1.05596e-05
 Reference value :  1.05726e-05
 Reference value :  1.05849e-05
 Reference value :  1.05941e-05
 Reference value :  1.06028e-05
 Reference value :  1.06099e-05
 Reference value :  1.06173e-05
 Reference value :  1.06241e-05
 Reference value :  1.06319e-05
 Reference value :  1.06440e-05
 Reference value :  1.06605e-05
 Reference value :  1.06842e-05
 Reference value :  1.07211e-05
 Reference value :  1.07501e-05
 Reference value :  1.07501e-05
 Reference value :  1.07501e-05
 Reference value :  1.07502e-05
 Reference value :  1.07502e-05
 Reference value :  1.07502e-05
 Reference value :  1.07502e-05
 Reference value :  1.07502e-05
 Reference value :  1.07502e-05
 Reference value :  1.07502e-05
 Reference value :  1.07502e-05
 Reference value :  1.07503e-05
 Reference value :  1.07504e-05
 Reference value :  1.07506e-05
 Reference value :  1.07509e-05
 Reference value :  1.07514e-05
 Reference value :  1.07520e-05
 Reference value :  1.07526e-05
 Reference value :  1.07533e-05
 Reference value :  1.07541e-05
 Reference value :  1.07547e-05
 Reference value :  1.07554e-05
 Reference value :  1.07562e-05
 Reference value :  1.07572e-05
 Reference value :  1.07582e-05
 Reference value :  1.07602e-05
 Reference value :  1.07621e-05
 Reference value :  1.07652e-05
 Reference value :  1.07690e-05
 Reference value :  1.07767e-05
 Reference value :  1.07920e-05
 Reference value :  1.08226e-05
 Reference value :  1.08838e-05
 Reference value :  1.09829e-05
 Reference value :  1.10000e-05
 Reference value :  1.10000e-05
 Reference value :  1.10000e-05
 Reference value :  1.10001e-05
 Reference value :  1.10001e-05
 Reference value :  1.10001e-05
 Reference value :  1.10001e-05
 Reference value :  1.10001e-05
 Reference value :  1.10002e-05
 Reference value :  1.10002e-05
 Reference value :  1.10004e-05
 Reference value :  1.10005e-05
 Reference value :  1.10009e-05
 Reference value :  1.10014e-05
 Reference value :  1.10019e-05
 Reference value :  1.10024e-05
 Reference value :  1.10030e-05
 Reference value :  1.10037e-05
 Reference value :  1.10045e-05
 Reference value :  1.10053e-05
 Reference value :  1.10063e-05
 Reference value :  1.10076e-05
 Reference value :  1.10090e-05
 Reference value :  1.10104e-05
 Reference value :  1.10119e-05
 Reference value :  1.10132e-05
 Reference value :  1.10146e-05
 Reference value :  1.10160e-05
 Reference value :  1.10176e-05
 Reference value :  1.10209e-05
 Reference value :  1.10258e-05
 Reference value :  1.10357e-05
 Reference value :  1.10555e-05
 Reference value :  1.10950e-05
 Reference value :  1.11741e-05
 Reference value :  1.12501e-05
 Reference value :  1.12501e-05
 Reference value :  1.12501e-05
 Reference value :  1.12502e-05
 Reference value :  1.12502e-05
 Reference value :  1.12502e-05
 Reference value :  1.12502e-05
 Reference value :  1.12502e-05
 Reference value :  1.12502e-05
 Reference value :  1.12502e-05
 Reference value :  1.12502e-05
 Reference value :  1.12503e-05
 Reference value :  1.12504e-05
 Reference value :  1.12506e-05
 Reference value :  1.12509e-05
 Reference value :  1.12514e-05
 Reference value :  1.12520e-05
 Reference value :  1.12526e-05
 Reference value :  1.12532e-05
 Reference value :  1.12541e-05
 Reference value :  1.12547e-05
 Reference value :  1.12554e-05
 Reference value :  1.12561e-05
 Reference value :  1.12568e-05
 Reference value :  1.12577e-05
 Reference value :  1.12587e-05
 Reference value :  1.12597e-05
 Reference value :  1.12612e-05
 Reference value :  1.12628e-05
 Reference value :  1.12651e-05
 Reference value :  1.12679e-05
 Reference value :  1.12721e-05
 Reference value :  1.12805e-05
 Reference value :  1.12964e-05
 Reference value :  1.13280e-05
 Reference value :  1.13912e-05
 Reference value :  1.15000e-05
 Reference value :  1.15000e-05
 Reference value :  1.15000e-05
 Reference value :  1.15001e-05
 Reference value :  1.15001e-05
 Reference value :  1.15001e-05
 Reference value :  1.15001e-05
 Reference value :  1.15001e-05
 Reference value :  1.15002e-05
 Reference value :  1.15002e-05
 Reference value :  1.15004e-05
 Reference value :  1.15005e-05
 Reference value :  1.15009e-05
 Reference value :  1.15014e-05
 Reference value :  1.15019e-05
 Reference value :  1.15024e-05
 Reference value :  1.15031e-05
 Reference value :  1.15037e-05
 Reference value :  1.15045e-05
 Reference value :  1.15051e-05
 Reference value :  1.15058e-05
 Reference value :  1.15065e-05
 Reference value :  1.15072e-05
 Reference value :  1.15080e-05
 Reference value :  1.15089e-05
 Reference value :  1.15099e-05
 Reference value :  1.15116e-05
 Reference value :  1.15132e-05
 Reference value :  1.15146e-05
 Reference value :  1.15161e-05
 Reference value :  1.15177e-05
 Reference value :  1.15189e-05
 Reference value :  1.15201e-05
 Reference value :  1.15215e-05
 Reference value :  1.15229e-05
 Reference value :  1.15242e-05
 Reference value :  1.15259e-05
 Reference value :  1.15282e-05
 Reference value :  1.15305e-05
 Reference value :  1.15346e-05
 Reference value :  1.15404e-05
 Reference value :  1.15465e-05
 Reference value :  1.15521e-05
 Reference value :  1.15580e-05
 Reference value :  1.15610e-05
 Reference value :  1.15639e-05
 Reference value :  1.15671e-05
 Reference value :  1.15704e-05
 Reference value :  1.15759e-05
 Reference value :  1.15821e-05
 Reference value :  1.15915e-05
 Reference value :  1.16050e-05
 Reference value :  1.16238e-05
 Reference value :  1.16525e-05
 Reference value :  1.16849e-05
 Reference value :  1.17189e-05
 Reference value :  1.17501e-05
 Reference value :  1.17501e-05
 Reference value :  1.17501e-05
 Reference value :  1.17502e-05
 Reference value :  1.17502e-05
 Reference value :  1.17502e-05
 Reference value :  1.17502e-05
 Reference value :  1.17502e-05
 Reference value :  1.17502e-05
 Reference value :  1.17502e-05
 Reference value :  1.17502e-05
 Reference value :  1.17503e-05
 Reference value :  1.17504e-05
 Reference value :  1.17506e-05
 Reference value :  1.17509e-05
 Reference value :  1.17514e-05
 Reference value :  1.17520e-05
 Reference value :  1.17526e-05
 Reference value :  1.17533e-05
 Reference value :  1.17541e-05
 Reference value :  1.17547e-05
 Reference value :  1.17554e-05
 Reference value :  1.17564e-05
 Reference value :  1.17572e-05
 Reference value :  1.17583e-05
 Reference value :  1.17604e-05
 Reference value :  1.17623e-05
 Reference value :  1.17656e-05
 Reference value :  1.17695e-05
 Reference value :  1.17775e-05
 Reference value :  1.17933e-05
 Reference value :  1.18251e-05
 Reference value :  1.18885e-05
 Reference value :  1.20000e-05
 Reference value :  1.20000e-05
 Reference value :  1.20000e-05
 Reference value :  1.20001e-05
 Reference value :  1.20001e-05
 Reference value :  1.20001e-05
 Reference value :  1.20001e-05
 Reference value :  1.20001e-05
 Reference value :  1.20002e-05
 Reference value :  1.20002e-05
 Reference value :  1.20004e-05
 Reference value :  1.20005e-05
 Reference value :  1.20009e-05
 Reference value :  1.20014e-05
 Reference value :  1.20019e-05
 Reference value :  1.20025e-05
 Reference value :  1.20031e-05
 Reference value :  1.20038e-05
 Reference value :  1.20045e-05
 Reference value :  1.20054e-05
 Reference value :  1.20062e-05
 Reference value :  1.20073e-05
 Reference value :  1.20087e-05
 Reference value :  1.20099e-05
 Reference value :  1.20111e-05
 Reference value :  1.20125e-05
 Reference value :  1.20141e-05
 Reference value :  1.20157e-05
 Reference value :  1.20175e-05
 Reference value :  1.20211e-05
 Reference value :  1.20266e-05
 Reference value :  1.20375e-05
 Reference value :  1.20592e-05
 Reference value :  1.21007e-05
 Reference value :  1.21837e-05
 Reference value :  1.22501e-05
 Reference value :  1.22501e-05
 Reference value :  1.22501e-05
 Reference value :  1.22502e-05
 Reference value :  1.22502e-05
 Reference value :  1.22502e-05
 Reference value :  1.22502e-05
 Reference value :  1.22502e-05
 Reference value :  1.22502e-05
 Reference value :  1.22502e-05
 Reference value :  1.22502e-05
 Reference value :  1.22503e-05
 Reference value :  1.22504e-05
 Reference value :  1.22506e-05
 Reference value :  1.22509e-05
 Reference value :  1.22514e-05
 Reference value :  1.22520e-05
 Reference value :  1.22526e-05
 Reference value :  1.22532e-05
 Reference value :  1.22541e-05
 Reference value :  1.22547e-05
 Reference value :  1.22554e-05
 Reference value :  1.22560e-05
 Reference value :  1.22568e-05
 Reference value :  1.22577e-05
 Reference value :  1.22587e-05
 Reference value :  1.22606e-05
 Reference value :  1.22627e-05
 Reference value :  1.22663e-05
 Reference value :  1.22706e-05
 Reference value :  1.22793e-05
 Reference value :  1.22967e-05
 Reference value :  1.23315e-05
 Reference value :  1.24011e-05
 Reference value :  1.25000e-05
 Reference value :  1.25000e-05
 Reference value :  1.25000e-05
 Reference value :  1.25001e-05
 Reference value :  1.25001e-05
 Reference value :  1.25001e-05
 Reference value :  1.25001e-05
 Reference value :  1.25001e-05
 Reference value :  1.25002e-05
 Reference value :  1.25002e-05
 Reference value :  1.25004e-05
 Reference value :  1.25005e-05
 Reference value :  1.25009e-05
 Reference value :  1.25014e-05
 Reference value :  1.25019e-05
 Reference value :  1.25024e-05
 Reference value :  1.25031e-05
 Reference value :  1.25038e-05
 Reference value :  1.25045e-05
 Reference value :  1.25052e-05
 Reference value :  1.25059e-05
 Reference value :  1.25068e-05
 Reference value :  1.25076e-05
 Reference value :  1.25084e-05
 Reference value :  1.25095e-05
 Reference value :  1.25106e-05
 Reference value :  1.25126e-05
 Reference value :  1.25151e-05
 Reference value :  1.25169e-05
 Reference value :  1.25190e-05
 Reference value :  1.25206e-05
 Reference value :  1.25224e-05
 Reference value :  1.25242e-05
 Reference value :  1.25263e-05
 Reference value :  1.25282e-05
 Reference value :  1.25311e-05
 Reference value :  1.25349e-05
 Reference value :  1.25404e-05
 Reference value :  1.25460e-05
 Reference value :  1.25539e-05
 Reference value :  1.25618e-05
 Reference value :  1.25673e-05
 Reference value :  1.25731e-05
 Reference value :  1.25790e-05
 Reference value :  1.25856e-05
 Reference value :  1.25920e-05
 Reference value :  1.25998e-05
 Reference value :  1.26078e-05
 Reference value :  1.26237e-05
 Reference value :  1.26418e-05
 Reference value :  1.26717e-05
 Reference value :  1.27189e-05
 Reference value :  1.27501e-05
 Reference value :  1.27501e-05
 Reference value :  1.27501e-05
 Reference value :  1.27502e-05
 Reference value :  1.27502e-05
 Reference value :  1.27502e-05
 Reference value :  1.27502e-05
 Reference value :  1.27502e-05
 Reference value :  1.27502e-05
 Reference value :  1.27502e-05
 Reference value :  1.27502e-05
 Reference value :  1.27503e-05
 Reference value :  1.27504e-05
 Reference value :  1.27506e-05
 Reference value :  1.27509e-05
 Reference value :  1.27514e-05
 Reference value :  1.27520e-05
 Reference value :  1.27526e-05
 Reference value :  1.27533e-05
 Reference value :  1.27541e-05
 Reference value :  1.27547e-05
 Reference value :  1.27554e-05
 Reference value :  1.27562e-05
 Reference value :  1.27572e-05
 Reference value :  1.27582e-05
 Reference value :  1.27602e-05
 Reference value :  1.27621e-05
 Reference value :  1.27652e-05
 Reference value :  1.27691e-05
 Reference value :  1.27768e-05
 Reference value :  1.27922e-05
 Reference value :  1.28138e-05
 Reference value :  1.28488e-05
 Reference value :  1.28822e-05
 Reference value :  1.29058e-05
 Reference value :  1.29285e-05
 Reference value :  1.29477e-05
 Reference value :  1.29698e-05
 Reference value :  1.30000e-05
 Reference value :  1.30000e-05
 Reference value :  1.30000e-05
 Reference value :  1.30001e-05
 Reference value :  1.30001e-05
 Reference value :  1.30001e-05
 Reference value :  1.30001e-05
 Reference value :  1.30001e-05
 Reference value :  1.30002e-05
 Reference value :  1.30002e-05
 Reference value :  1.30004e-05
 Reference value :  1.30005e-05
 Reference value :  1.30009e-05
 Reference value :  1.30014e-05
 Reference value :  1.30019e-05
 Reference value :  1.30024e-05
 Reference value :  1.30031e-05
 Reference value :  1.30037e-05
 Reference value :  1.30045e-05
 Reference value :  1.30053e-05
 Reference value :  1.30062e-05
 Reference value :  1.30073e-05
 Reference value :  1.30087e-05
 Reference value :  1.30099e-05
 Reference value :  1.30111e-05
 Reference value :  1.30123e-05
 Reference value :  1.30136e-05
 Reference value :  1.30150e-05
 Reference value :  1.30165e-05
 Reference value :  1.30195e-05
 Reference value :  1.30256e-05
 Reference value :  1.30363e-05
 Reference value :  1.30577e-05
 Reference value :  1.31004e-05
 Reference value :  1.31860e-05
 Reference value :  1.32501e-05
 Reference value :  1.32501e-05
 Reference value :  1.32501e-05
 Reference value :  1.32502e-05
 Reference value :  1.32502e-05
 Reference value :  1.32502e-05
 Reference value :  1.32502e-05
 Reference value :  1.32502e-05
 Reference value :  1.32502e-05
 Reference value :  1.32502e-05
 Reference value :  1.32502e-05
 Reference value :  1.32503e-05
 Reference value :  1.32504e-05
 Reference value :  1.32506e-05
 Reference value :  1.32509e-05
 Reference value :  1.32514e-05
 Reference value :  1.32520e-05
 Reference value :  1.32526e-05
 Reference value :  1.32533e-05
 Reference value :  1.32541e-05
 Reference value :  1.32547e-05
 Reference value :  1.32554e-05
 Reference value :  1.32561e-05
 Reference value :  1.32569e-05
 Reference value :  1.32578e-05
 Reference value :  1.32589e-05
 Reference value :  1.32610e-05
 Reference value :  1.32632e-05
 Reference value :  1.32670e-05
 Reference value :  1.32719e-05
 Reference value :  1.32818e-05
 Reference value :  1.33014e-05
 Reference value :  1.33407e-05
 Reference value :  1.34192e-05
 Reference value :  1.35000e-05
 Reference value :  1.35000e-05
 Reference value :  1.35000e-05
 Reference value :  1.35001e-05
 Reference value :  1.35001e-05
 Reference value :  1.35001e-05
 Reference value :  1.35001e-05
 Reference value :  1.35001e-05
 Reference value :  1.35002e-05
 Reference value :  1.35002e-05
 Reference value :  1.35004e-05
 Reference value :  1.35005e-05
 Reference value :  1.35009e-05
 Reference value :  1.35014e-05
 Reference value :  1.35019e-05
 Reference value :  1.35024e-05
 Reference value :  1.35031e-05
 Reference value :  1.35037e-05
 Reference value :  1.35045e-05
 Reference value :  1.35052e-05
 Reference value :  1.35059e-05
 Reference value :  1.35068e-05
 Reference value :  1.35075e-05
 Reference value :  1.35084e-05
 Reference value :  1.35095e-05
 Reference value :  1.35107e-05
 Reference value :  1.35129e-05
 Reference value :  1.35155e-05
 Reference value :  1.35175e-05
 Reference value :  1.35191e-05
 Reference value :  1.35208e-05
 Reference value :  1.35224e-05
 Reference value :  1.35240e-05
 Reference value :  1.35259e-05
 Reference value :  1.35278e-05
 Reference value :  1.35306e-05
 Reference value :  1.35345e-05
 Reference value :  1.35393e-05
 Reference value :  1.35449e-05
 Reference value :  1.35518e-05
 Reference value :  1.35567e-05
 Reference value :  1.35621e-05
 Reference value :  1.35694e-05
 Reference value :  1.35768e-05
 Reference value :  1.35831e-05
 Reference value :  1.35914e-05
 Reference value :  1.36011e-05
 Reference value :  1.36179e-05
 Reference value :  1.36424e-05
 Reference value :  1.36817e-05
 Reference value :  1.37501e-05
 Reference value :  1.37501e-05
 Reference value :  1.37501e-05
 Reference value :  1.37502e-05
 Reference value :  1.37502e-05
 Reference value :  1.37502e-05
 Reference value :  1.37502e-05
 Reference value :  1.37502e-05
 Reference value :  1.37502e-05
 Reference value :  1.37502e-05
 Reference value :  1.37502e-05
 Reference value :  1.37503e-05
 Reference value :  1.37504e-05
 Reference value :  1.37506e-05
 Reference value :  1.37509e-05
 Reference value :  1.37514e-05
 Reference value :  1.37520e-05
 Reference value :  1.37526e-05
 Reference value :  1.37533e-05
 Reference value :  1.37541e-05
 Reference value :  1.37547e-05
 Reference value :  1.37554e-05
 Reference value :  1.37562e-05
 Reference value :  1.37572e-05
 Reference value :  1.37582e-05
 Reference value :  1.37602e-05
 Reference value :  1.37621e-05
 Reference value :  1.37653e-05
 Reference value :  1.37692e-05
 Reference value :  1.37769e-05
 Reference value :  1.37923e-05
 Reference value :  1.38232e-05
 Reference value :  1.38850e-05
 Reference value :  1.40000e-05
 Reference value :  1.40000e-05
 Reference value :  1.40000e-05
 Reference value :  1.40001e-05
 Reference value :  1.40001e-05
 Reference value :  1.40001e-05
 Reference value :  1.40001e-05
 Reference value :  1.40001e-05
 Reference value :  1.40002e-05
 Reference value :  1.40002e-05
 Reference value :  1.40004e-05
 Reference value :  1.40005e-05
 Reference value :  1.40009e-05
 Reference value :  1.40014e-05
 Reference value :  1.40019e-05
 Reference value :  1.40024e-05
 Reference value :  1.40030e-05
 Reference value :  1.40037e-05
 Reference value :  1.40046e-05
 Reference value :  1.40054e-05
 Reference value :  1.40063e-05
 Reference value :  1.40076e-05
 Reference value :  1.40088e-05
 Reference value :  1.40102e-05
 Reference value :  1.40115e-05
 Reference value :  1.40128e-05
 Reference value :  1.40142e-05
 Reference value :  1.40157e-05
 Reference value :  1.40174e-05
 Reference value :  1.40205e-05
 Reference value :  1.40251e-05
 Reference value :  1.40336e-05
 Reference value :  1.40496e-05
 Reference value :  1.40792e-05
 Reference value :  1.41378e-05
 Reference value :  1.42501e-05
 Reference value :  1.42501e-05
 Reference value :  1.42501e-05
 Reference value :  1.42502e-05
 Reference value :  1.42502e-05
 Reference value :  1.42502e-05
 Reference value :  1.42502e-05
 Reference value :  1.42502e-05
 Reference value :  1.42502e-05
 Reference value :  1.42502e-05
 Reference value :  1.42502e-05
 Reference value :  1.42503e-05
 Reference value :  1.42504e-05
 Reference value :  1.42506e-05
 Reference value :  1.42509e-05
 Reference value :  1.42514e-05
 Reference value :  1.42520e-05
 Reference value :  1.42526e-05
 Reference value :  1.42533e-05
 Reference value :  1.42541e-05
 Reference value :  1.42547e-05
 Reference value :  1.42554e-05
 Reference value :  1.42561e-05
 Reference value :  1.42569e-05
 Reference value :  1.42578e-05
 Reference value :  1.42589e-05
 Reference value :  1.42600e-05
 Reference value :  1.42615e-05
 Reference value :  1.42634e-05
 Reference value :  1.42655e-05
 Reference value :  1.42689e-05
 Reference value :  1.42734e-05
 Reference value :  1.42823e-05
 Reference value :  1.43001e-05
 Reference value :  1.43356e-05
 Reference value :  1.44067e-05
 Reference value :  1.45000e-05
 Reference value :  1.45000e-05
 Reference value :  1.45000e-05
 Reference value :  1.45001e-05
 Reference value :  1.45001e-05
 Reference value :  1.45001e-05
 Reference value :  1.45001e-05
 Reference value :  1.45001e-05
 Reference value :  1.45002e-05
 Reference value :  1.45002e-05
 Reference value :  1.45004e-05
 Reference value :  1.45005e-05
 Reference value :  1.45009e-05
 Reference value :  1.45014e-05
 Reference value :  1.45019e-05
 Reference value :  1.45024e-05
 Reference value :  1.45031e-05
 Reference value :  1.45037e-05
 Reference value :  1.45045e-05
 Reference value :  1.45051e-05
 Reference value :  1.45058e-05
 Reference value :  1.45065e-05
 Reference value :  1.45073e-05
 Reference value :  1.45080e-05
 Reference value :  1.45091e-05
 Reference value :  1.45101e-05
 Reference value :  1.45120e-05
 Reference value :  1.45133e-05
 Reference value :  1.45147e-05
 Reference value :  1.45161e-05
 Reference value :  1.45176e-05
 Reference value :  1.45190e-05
 Reference value :  1.45204e-05
 Reference value :  1.45219e-05
 Reference value :  1.45234e-05
 Reference value :  1.45249e-05
 Reference value :  1.45267e-05
 Reference value :  1.45292e-05
 Reference value :  1.45318e-05
 Reference value :  1.45370e-05
 Reference value :  1.45433e-05
 Reference value :  1.45507e-05
 Reference value :  1.45575e-05
 Reference value :  1.45672e-05
 Reference value :  1.45784e-05
 Reference value :  1.46000e-05
 Reference value :  1.46213e-05
 Reference value :  1.46612e-05
 Reference value :  1.46935e-05
 Reference value :  1.47247e-05
 Reference value :  1.47501e-05
 Reference value :  1.47501e-05
 Reference value :  1.47501e-05
 Reference value :  1.47502e-05
 Reference value :  1.47502e-05
 Reference value :  1.47502e-05
 Reference value :  1.47502e-05
 Reference value :  1.47502e-05
 Reference value :  1.47502e-05
 Reference value :  1.47502e-05
 Reference value :  1.47502e-05
 Reference value :  1.47503e-05
 Reference value :  1.47504e-05
 Reference value :  1.47506e-05
 Reference value :  1.47509e-05
 Reference value :  1.47514e-05
 Reference value :  1.47520e-05
 Reference value :  1.47526e-05
 Reference value :  1.47533e-05
 Reference value :  1.47541e-05
 Reference value :  1.47547e-05
 Reference value :  1.47554e-05
 Reference value :  1.47563e-05
 Reference value :  1.47572e-05
 Reference value :  1.47583e-05
 Reference value :  1.47601e-05
 Reference value :  1.47621e-05
 Reference value :  1.47652e-05
 Reference value :  1.47690e-05
 Reference value :  1.47768e-05
 Reference value :  1.47923e-05
 Reference value :  1.48233e-05
 Reference value :  1.48854e-05
 Reference value :  1.50000e-05
 Reference value :  1.50000e-05
 Reference value :  1.50000e-05
 Reference value :  1.50001e-05
 Reference value :  1.50001e-05
 Reference value :  1.50001e-05
 Reference value :  1.50001e-05
 Reference value :  1.50001e-05
 Reference value :  1.50002e-05
 Reference value :  1.50002e-05
 Reference value :  1.50004e-05
 Reference value :  1.50005e-05
 Reference value :  1.50009e-05
 Reference value :  1.50014e-05
 Reference value :  1.50019e-05
 Reference value :  1.50024e-05
 Reference value :  1.50030e-05
 Reference value :  1.50037e-05
 Reference value :  1.50046e-05
 Reference value :  1.50054e-05
 Reference value :  1.50063e-05
 Reference value :  1.50074e-05
 Reference value :  1.50087e-05
 Reference value :  1.50099e-05
 Reference value :  1.50111e-05
 Reference value :  1.50122e-05
 Reference value :  1.50135e-05
 Reference value :  1.50148e-05
 Reference value :  1.50163e-05
 Reference value :  1.50193e-05
 Reference value :  1.50252e-05
 Reference value :  1.50356e-05
 Reference value :  1.50563e-05
 Reference value :  1.50977e-05
 Reference value :  1.51806e-05
 Reference value :  1.52501e-05
 Reference value :  1.52501e-05
 Reference value :  1.52501e-05
 Reference value :  1.52502e-05
 Reference value :  1.52502e-05
 Reference value :  1.52502e-05
 Reference value :  1.52502e-05
 Reference value :  1.52502e-05
 Reference value :  1.52502e-05
 Reference value :  1.52502e-05
 Reference value :  1.52502e-05
 Reference value :  1.52503e-05
 Reference value :  1.52504e-05
 Reference value :  1.52506e-05
 Reference value :  1.52509e-05
 Reference value :  1.52514e-05
 Reference value :  1.52520e-05
 Reference value :  1.52526e-05
 Reference value :  1.52533e-05
 Reference value :  1.52541e-05
 Reference value :  1.52548e-05
 Reference value :  1.52555e-05
 Reference value :  1.52561e-05
 Reference value :  1.52569e-05
 Reference value :  1.52579e-05
 Reference value :  1.52589e-05
 Reference value :  1.52601e-05
 Reference value :  1.52615e-05
 Reference value :  1.52636e-05
 Reference value :  1.52656e-05
 Reference value :  1.52693e-05
 Reference value :  1.52738e-05
 Reference value :  1.52829e-05
 Reference value :  1.53011e-05
 Reference value :  1.53375e-05
 Reference value :  1.54103e-05
 Reference value :  1.55000e-05
 Reference value :  1.55013e-05
 Reference value :  1.55038e-05
 Reference value :  1.55052e-05
 Reference value :  1.55064e-05
 Reference value :  1.55077e-05
 Reference value :  1.55089e-05
 Reference value :  1.55101e-05
 Reference value :  1.55114e-05
 Reference value :  1.55132e-05
 Reference value :  1.55146e-05
 Reference value :  1.55160e-05
 Reference value :  1.55175e-05
 Reference value :  1.55191e-05
 Reference value :  1.55202e-05
 Reference value :  1.55213e-05
 Reference value :  1.55223e-05
 Reference value :  1.55235e-05
 Reference value :  1.55248e-05
 Reference value :  1.55262e-05
 Reference value :  1.55282e-05
 Reference value :  1.55304e-05
 Reference value :  1.55345e-05
 Reference value :  1.55385e-05
 Reference value :  1.55429e-05
 Reference value :  1.55481e-05
 Reference value :  1.55525e-05
 Reference value :  1.55573e-05
 Reference value :  1.55626e-05
 Reference value :  1.55675e-05
 Reference value :  1.55774e-05
 Reference value :  1.55918e-05
 Reference value :  1.56053e-05
 Reference value :  1.56215e-05
 Reference value :  1.56540e-05
 Reference value :  1.57176e-05
 Reference value :  1.57501e-05
 Reference value :  1.57501e-05
 Reference value :  1.57501e-05
 Reference value :  1.57502e-05
 Reference value :  1.57502e-05
 Reference value :  1.57502e-05
 Reference value :  1.57502e-05
 Reference value :  1.57502e-05
 Reference value :  1.57502e-05
 Reference value :  1.57502e-05
 Reference value :  1.57502e-05
 Reference value :  1.57503e-05
 Reference value :  1.57504e-05
 Reference value :  1.57506e-05
 Reference value :  1.57509e-05
 Reference value :  1.57514e-05
 Reference value :  1.57520e-05
 Reference value :  1.57526e-05
 Reference value :  1.57533e-05
 Reference value :  1.57542e-05
 Reference value :  1.57548e-05
 Reference value :  1.57555e-05
 Reference value :  1.57563e-05
 Reference value :  1.57573e-05
 Reference value :  1.57583e-05
 Reference value :  1.57603e-05
 Reference value :  1.57622e-05
 Reference value :  1.57655e-05
 Reference value :  1.57694e-05
 Reference value :  1.57772e-05
 Reference value :  1.57929e-05
 Reference value :  1.58242e-05
 Reference value :  1.58867e-05
 Reference value :  1.60000e-05
 Reference value :  1.60000e-05
 Reference value :  1.60000e-05
 Reference value :  1.60001e-05
 Reference value :  1.60001e-05
 Reference value :  1.60001e-05
 Reference value :  1.60001e-05
 Reference value :  1.60001e-05
 Reference value :  1.60002e-05
 Reference value :  1.60002e-05
 Reference value :  1.60004e-05
 Reference value :  1.60005e-05
 Reference value :  1.60009e-05
 Reference value :  1.60014e-05
 Reference value :  1.60019e-05
 Reference value :  1.60025e-05
 Reference value :  1.60032e-05
 Reference value :  1.60039e-05
 Reference value :  1.60046e-05
 Reference value :  1.60054e-05
 Reference value :  1.60063e-05
 Reference value :  1.60075e-05
 Reference value :  1.60089e-05
 Reference value :  1.60102e-05
 Reference value :  1.60115e-05
 Reference value :  1.60127e-05
[...]
 Reference value :  2.67823e-04
 Reference value :  2.67885e-04
 Reference value :  2.68000e-04
 Reference value :  2.68000e-04
 Reference value :  2.68000e-04
 Reference value :  2.68000e-04
 Reference value :  2.68000e-04
 Reference value :  2.68000e-04
 Reference value :  2.68000e-04
 Reference value :  2.68000e-04
 Reference value :  2.68000e-04
 Reference value :  2.68000e-04
 Reference value :  2.68000e-04
 Reference value :  2.68001e-04
 Reference value :  2.68001e-04
 Reference value :  2.68001e-04
 Reference value :  2.68002e-04
 Reference value :  2.68002e-04
 Reference value :  2.68003e-04
 Reference value :  2.68004e-04
 Reference value :  2.68005e-04
 Reference value :  2.68005e-04
 Reference value :  2.68006e-04
 Reference value :  2.68007e-04
 Reference value :  2.68009e-04
 Reference value :  2.68010e-04
 Reference value :  2.68011e-04
 Reference value :  2.68012e-04
 Reference value :  2.68014e-04
 Reference value :  2.68015e-04
 Reference value :  2.68016e-04
 Reference value :  2.68019e-04
 Reference value :  2.68025e-04
 Reference value :  2.68036e-04
 Reference value :  2.68057e-04
 Reference value :  2.68100e-04
 Reference value :  2.68184e-04
 Reference value :  2.68250e-04
 Reference value :  2.68250e-04
 Reference value :  2.68250e-04
 Reference value :  2.68250e-04
 Reference value :  2.68250e-04
 Reference value :  2.68250e-04
 Reference value :  2.68250e-04
 Reference value :  2.68250e-04
 Reference value :  2.68250e-04
 Reference value :  2.68250e-04
 Reference value :  2.68250e-04
 Reference value :  2.68250e-04
 Reference value :  2.68250e-04
 Reference value :  2.68251e-04
 Reference value :  2.68251e-04
 Reference value :  2.68251e-04
 Reference value :  2.68252e-04
 Reference value :  2.68253e-04
 Reference value :  2.68253e-04
 Reference value :  2.68254e-04
 Reference value :  2.68255e-04
 Reference value :  2.68255e-04
 Reference value :  2.68256e-04
 Reference value :  2.68257e-04
 Reference value :  2.68258e-04
 Reference value :  2.68259e-04
 Reference value :  2.68260e-04
 Reference value :  2.68262e-04
 Reference value :  2.68264e-04
 Reference value :  2.68266e-04
 Reference value :  2.68269e-04
 Reference value :  2.68274e-04
 Reference value :  2.68283e-04
 Reference value :  2.68301e-04
 Reference value :  2.68338e-04
 Reference value :  2.68411e-04
 Reference value :  2.68500e-04
 Reference value :  2.68500e-04
 Reference value :  2.68500e-04
 Reference value :  2.68500e-04
 Reference value :  2.68500e-04
 Reference value :  2.68500e-04
 Reference value :  2.68500e-04
 Reference value :  2.68500e-04
 Reference value :  2.68500e-04
 Reference value :  2.68500e-04
 Reference value :  2.68500e-04
 Reference value :  2.68501e-04
 Reference value :  2.68501e-04
 Reference value :  2.68501e-04
 Reference value :  2.68502e-04
 Reference value :  2.68502e-04
 Reference value :  2.68503e-04
 Reference value :  2.68504e-04
 Reference value :  2.68505e-04
 Reference value :  2.68505e-04
 Reference value :  2.68506e-04
 Reference value :  2.68507e-04
 Reference value :  2.68507e-04
 Reference value :  2.68508e-04
 Reference value :  2.68509e-04
 Reference value :  2.68510e-04
 Reference value :  2.68512e-04
 Reference value :  2.68513e-04
 Reference value :  2.68514e-04
 Reference value :  2.68516e-04
 Reference value :  2.68517e-04
 Reference value :  2.68519e-04
 Reference value :  2.68520e-04
 Reference value :  2.68521e-04
 Reference value :  2.68523e-04
 Reference value :  2.68524e-04
 Reference value :  2.68526e-04
 Reference value :  2.68528e-04
 Reference value :  2.68530e-04
 Reference value :  2.68534e-04
 Reference value :  2.68539e-04
 Reference value :  2.68545e-04
 Reference value :  2.68552e-04
 Reference value :  2.68558e-04
 Reference value :  2.68562e-04
 Reference value :  2.68566e-04
 Reference value :  2.68570e-04
 Reference value :  2.68574e-04
 Reference value :  2.68581e-04
 Reference value :  2.68589e-04
 Reference value :  2.68602e-04
 Reference value :  2.68619e-04
 Reference value :  2.68638e-04
 Reference value :  2.68654e-04
 Reference value :  2.68671e-04
 Reference value :  2.68685e-04
 Reference value :  2.68696e-04
 Reference value :  2.68708e-04
 Reference value :  2.68726e-04
 Reference value :  2.68748e-04
 Reference value :  2.68750e-04
 Reference value :  2.68750e-04
 Reference value :  2.68750e-04
 Reference value :  2.68750e-04
 Reference value :  2.68750e-04
 Reference value :  2.68750e-04
 Reference value :  2.68750e-04
 Reference value :  2.68750e-04
 Reference value :  2.68750e-04
 Reference value :  2.68750e-04
 Reference value :  2.68750e-04
 Reference value :  2.68750e-04
 Reference value :  2.68750e-04
 Reference value :  2.68751e-04
 Reference value :  2.68751e-04
 Reference value :  2.68751e-04
 Reference value :  2.68752e-04
 Reference value :  2.68753e-04
 Reference value :  2.68753e-04
 Reference value :  2.68754e-04
 Reference value :  2.68755e-04
 Reference value :  2.68755e-04
 Reference value :  2.68756e-04
 Reference value :  2.68757e-04
 Reference value :  2.68758e-04
 Reference value :  2.68760e-04
 Reference value :  2.68762e-04
 Reference value :  2.68765e-04
 Reference value :  2.68769e-04
 Reference value :  2.68777e-04
 Reference value :  2.68792e-04
 Reference value :  2.68823e-04
 Reference value :  2.68885e-04
 Reference value :  2.68955e-04
 Reference value :  2.69000e-04
 Reference value :  2.69000e-04
 Reference value :  2.69000e-04
 Reference value :  2.69000e-04
 Reference value :  2.69000e-04
 Reference value :  2.69000e-04
 Reference value :  2.69000e-04
 Reference value :  2.69000e-04
 Reference value :  2.69000e-04
 Reference value :  2.69000e-04
 Reference value :  2.69000e-04
 Reference value :  2.69001e-04
 Reference value :  2.69001e-04
 Reference value :  2.69001e-04
 Reference value :  2.69002e-04
 Reference value :  2.69002e-04
 Reference value :  2.69003e-04
 Reference value :  2.69004e-04
 Reference value :  2.69005e-04
 Reference value :  2.69005e-04
 Reference value :  2.69006e-04
 Reference value :  2.69008e-04
 Reference value :  2.69009e-04
 Reference value :  2.69010e-04
 Reference value :  2.69012e-04
 Reference value :  2.69013e-04
 Reference value :  2.69014e-04
 Reference value :  2.69016e-04
 Reference value :  2.69018e-04
 Reference value :  2.69021e-04
 Reference value :  2.69026e-04
 Reference value :  2.69034e-04
 Reference value :  2.69050e-04
 Reference value :  2.69079e-04
 Reference value :  2.69134e-04
 Reference value :  2.69245e-04
 Reference value :  2.69250e-04
 Reference value :  2.69250e-04
 Reference value :  2.69250e-04
 Reference value :  2.69250e-04
 Reference value :  2.69250e-04
 Reference value :  2.69250e-04
 Reference value :  2.69250e-04
 Reference value :  2.69250e-04
 Reference value :  2.69250e-04
 Reference value :  2.69250e-04
 Reference value :  2.69250e-04
 Reference value :  2.69250e-04
 Reference value :  2.69250e-04
 Reference value :  2.69251e-04
 Reference value :  2.69251e-04
 Reference value :  2.69251e-04
 Reference value :  2.69252e-04
 Reference value :  2.69253e-04
 Reference value :  2.69253e-04
 Reference value :  2.69254e-04
 Reference value :  2.69255e-04
 Reference value :  2.69255e-04
 Reference value :  2.69256e-04
 Reference value :  2.69257e-04
 Reference value :  2.69258e-04
 Reference value :  2.69259e-04
 Reference value :  2.69260e-04
 Reference value :  2.69261e-04
 Reference value :  2.69263e-04
 Reference value :  2.69265e-04
 Reference value :  2.69269e-04
 Reference value :  2.69273e-04
 Reference value :  2.69282e-04
 Reference value :  2.69299e-04
 Reference value :  2.69334e-04
 Reference value :  2.69405e-04
 Reference value :  2.69500e-04
 Reference value :  2.69500e-04
 Reference value :  2.69500e-04
 Reference value :  2.69500e-04
 Reference value :  2.69500e-04
 Reference value :  2.69500e-04
 Reference value :  2.69500e-04
 Reference value :  2.69500e-04
 Reference value :  2.69500e-04
 Reference value :  2.69500e-04
 Reference value :  2.69500e-04
 Reference value :  2.69501e-04
 Reference value :  2.69501e-04
 Reference value :  2.69501e-04
 Reference value :  2.69502e-04
 Reference value :  2.69502e-04
 Reference value :  2.69503e-04
 Reference value :  2.69504e-04
 Reference value :  2.69505e-04
 Reference value :  2.69505e-04
 Reference value :  2.69506e-04
 Reference value :  2.69507e-04
 Reference value :  2.69507e-04
 Reference value :  2.69508e-04
 Reference value :  2.69509e-04
 Reference value :  2.69510e-04
 Reference value :  2.69512e-04
 Reference value :  2.69513e-04
 Reference value :  2.69514e-04
 Reference value :  2.69516e-04
 Reference value :  2.69517e-04
 Reference value :  2.69519e-04
 Reference value :  2.69520e-04
 Reference value :  2.69521e-04
 Reference value :  2.69522e-04
 Reference value :  2.69524e-04
 Reference value :  2.69525e-04
 Reference value :  2.69527e-04
 Reference value :  2.69529e-04
 Reference value :  2.69532e-04
 Reference value :  2.69537e-04
 Reference value :  2.69541e-04
 Reference value :  2.69546e-04
 Reference value :  2.69550e-04
 Reference value :  2.69554e-04
 Reference value :  2.69558e-04
 Reference value :  2.69563e-04
 Reference value :  2.69569e-04
 Reference value :  2.69576e-04
 Reference value :  2.69587e-04
 Reference value :  2.69608e-04
 Reference value :  2.69644e-04
 Reference value :  2.69697e-04
 Reference value :  2.69750e-04
 Reference value :  2.69750e-04
 Reference value :  2.69750e-04
 Reference value :  2.69750e-04
 Reference value :  2.69750e-04
 Reference value :  2.69750e-04
 Reference value :  2.69750e-04
 Reference value :  2.69750e-04
 Reference value :  2.69750e-04
 Reference value :  2.69750e-04
 Reference value :  2.69750e-04
 Reference value :  2.69750e-04
 Reference value :  2.69750e-04
 Reference value :  2.69751e-04
 Reference value :  2.69751e-04
 Reference value :  2.69751e-04
 Reference value :  2.69752e-04
 Reference value :  2.69753e-04
 Reference value :  2.69753e-04
 Reference value :  2.69754e-04
 Reference value :  2.69755e-04
 Reference value :  2.69755e-04
 Reference value :  2.69756e-04
 Reference value :  2.69757e-04
 Reference value :  2.69758e-04
 Reference value :  2.69760e-04
 Reference value :  2.69762e-04
 Reference value :  2.69765e-04
 Reference value :  2.69769e-04
 Reference value :  2.69775e-04
 Reference value :  2.69782e-04
 Reference value :  2.69795e-04
 Reference value :  2.69821e-04
 Reference value :  2.69872e-04
 Reference value :  2.69923e-04
 Reference value :  2.69971e-04
 Reference value :  2.70000e-04
 Reference value :  2.70000e-04
 Reference value :  2.70000e-04
 Reference value :  2.70000e-04
 Reference value :  2.70000e-04
 Reference value :  2.70000e-04
 Reference value :  2.70000e-04
 Reference value :  2.70000e-04
 Reference value :  2.70000e-04
 Reference value :  2.70000e-04
 Reference value :  2.70000e-04
 Reference value :  2.70001e-04
 Reference value :  2.70001e-04
 Reference value :  2.70001e-04
 Reference value :  2.70002e-04
 Reference value :  2.70002e-04
 Reference value :  2.70003e-04
 Reference value :  2.70004e-04
 Reference value :  2.70004e-04
 Reference value :  2.70005e-04
 Reference value :  2.70006e-04
 Reference value :  2.70007e-04
 Reference value :  2.70009e-04
 Reference value :  2.70010e-04
 Reference value :  2.70011e-04
 Reference value :  2.70012e-04
 Reference value :  2.70013e-04
 Reference value :  2.70015e-04
 Reference value :  2.70016e-04
 Reference value :  2.70019e-04
 Reference value :  2.70025e-04
 Reference value :  2.70036e-04
 Reference value :  2.70056e-04
 Reference value :  2.70097e-04
 Reference value :  2.70180e-04
 Reference value :  2.70250e-04
 Reference value :  2.70250e-04
 Reference value :  2.70250e-04
 Reference value :  2.70250e-04
 Reference value :  2.70250e-04
 Reference value :  2.70250e-04
 Reference value :  2.70250e-04
 Reference value :  2.70250e-04
 Reference value :  2.70250e-04
 Reference value :  2.70250e-04
 Reference value :  2.70250e-04
 Reference value :  2.70250e-04
 Reference value :  2.70250e-04
 Reference value :  2.70251e-04
 Reference value :  2.70251e-04
 Reference value :  2.70251e-04
 Reference value :  2.70252e-04
 Reference value :  2.70253e-04
 Reference value :  2.70253e-04
 Reference value :  2.70254e-04
 Reference value :  2.70255e-04
 Reference value :  2.70255e-04
 Reference value :  2.70256e-04
 Reference value :  2.70257e-04
 Reference value :  2.70258e-04
 Reference value :  2.70259e-04
 Reference value :  2.70260e-04
 Reference value :  2.70261e-04
 Reference value :  2.70264e-04
 Reference value :  2.70266e-04
 Reference value :  2.70269e-04
 Reference value :  2.70274e-04
 Reference value :  2.70283e-04
 Reference value :  2.70301e-04
 Reference value :  2.70337e-04
 Reference value :  2.70410e-04
 Reference value :  2.70500e-04
 Reference value :  2.70500e-04
 Reference value :  2.70500e-04
 Reference value :  2.70500e-04
 Reference value :  2.70500e-04
 Reference value :  2.70500e-04
 Reference value :  2.70500e-04
 Reference value :  2.70500e-04
 Reference value :  2.70500e-04
 Reference value :  2.70500e-04
 Reference value :  2.70500e-04
 Reference value :  2.70501e-04
 Reference value :  2.70501e-04
 Reference value :  2.70501e-04
 Reference value :  2.70502e-04
 Reference value :  2.70502e-04
 Reference value :  2.70503e-04
 Reference value :  2.70504e-04
 Reference value :  2.70505e-04
 Reference value :  2.70505e-04
 Reference value :  2.70506e-04
 Reference value :  2.70507e-04
 Reference value :  2.70507e-04
 Reference value :  2.70508e-04
 Reference value :  2.70509e-04
 Reference value :  2.70510e-04
 Reference value :  2.70512e-04
 Reference value :  2.70513e-04
 Reference value :  2.70514e-04
 Reference value :  2.70516e-04
 Reference value :  2.70517e-04
 Reference value :  2.70519e-04
 Reference value :  2.70520e-04
 Reference value :  2.70522e-04
 Reference value :  2.70523e-04
 Reference value :  2.70524e-04
 Reference value :  2.70526e-04
 Reference value :  2.70528e-04
 Reference value :  2.70530e-04
 Reference value :  2.70532e-04
 Reference value :  2.70534e-04
 Reference value :  2.70536e-04
 Reference value :  2.70538e-04
 Reference value :  2.70542e-04
 Reference value :  2.70546e-04
 Reference value :  2.70553e-04
 Reference value :  2.70565e-04
 Reference value :  2.70584e-04
 Reference value :  2.70616e-04
 Reference value :  2.70662e-04
 Reference value :  2.70750e-04
 Reference value :  2.70750e-04
 Reference value :  2.70750e-04
 Reference value :  2.70750e-04
 Reference value :  2.70750e-04
 Reference value :  2.70750e-04
 Reference value :  2.70750e-04
 Reference value :  2.70750e-04
 Reference value :  2.70750e-04
 Reference value :  2.70750e-04
 Reference value :  2.70750e-04
 Reference value :  2.70750e-04
 Reference value :  2.70750e-04
 Reference value :  2.70751e-04
 Reference value :  2.70751e-04
 Reference value :  2.70751e-04
 Reference value :  2.70752e-04
 Reference value :  2.70753e-04
 Reference value :  2.70753e-04
 Reference value :  2.70754e-04
 Reference value :  2.70755e-04
 Reference value :  2.70755e-04
 Reference value :  2.70756e-04
 Reference value :  2.70757e-04
 Reference value :  2.70758e-04
 Reference value :  2.70760e-04
 Reference value :  2.70762e-04
 Reference value :  2.70765e-04
 Reference value :  2.70769e-04
 Reference value :  2.70777e-04
 Reference value :  2.70793e-04
 Reference value :  2.70824e-04
 Reference value :  2.70886e-04
 Reference value :  2.71000e-04
 Reference value :  2.71000e-04
 Reference value :  2.71000e-04
 Reference value :  2.71000e-04
 Reference value :  2.71000e-04
 Reference value :  2.71000e-04
 Reference value :  2.71000e-04
 Reference value :  2.71000e-04
 Reference value :  2.71000e-04
 Reference value :  2.71000e-04
 Reference value :  2.71000e-04
 Reference value :  2.71001e-04
 Reference value :  2.71001e-04
 Reference value :  2.71001e-04
 Reference value :  2.71002e-04
 Reference value :  2.71003e-04
 Reference value :  2.71003e-04
 Reference value :  2.71004e-04
 Reference value :  2.71005e-04
 Reference value :  2.71005e-04
 Reference value :  2.71006e-04
 Reference value :  2.71007e-04
 Reference value :  2.71009e-04
 Reference value :  2.71010e-04
 Reference value :  2.71011e-04
 Reference value :  2.71013e-04
 Reference value :  2.71014e-04
 Reference value :  2.71015e-04
 Reference value :  2.71017e-04
 Reference value :  2.71020e-04
 Reference value :  2.71026e-04
 Reference value :  2.71037e-04
 Reference value :  2.71059e-04
 Reference value :  2.71103e-04
 Reference value :  2.71191e-04
 Reference value :  2.71250e-04
 Reference value :  2.71250e-04
 Reference value :  2.71250e-04
 Reference value :  2.71250e-04
 Reference value :  2.71250e-04
 Reference value :  2.71250e-04
 Reference value :  2.71250e-04
 Reference value :  2.71250e-04
 Reference value :  2.71250e-04
 Reference value :  2.71250e-04
 Reference value :  2.71250e-04
 Reference value :  2.71250e-04
 Reference value :  2.71250e-04
 Reference value :  2.71251e-04
 Reference value :  2.71251e-04
 Reference value :  2.71251e-04
 Reference value :  2.71252e-04
 Reference value :  2.71253e-04
 Reference value :  2.71253e-04
 Reference value :  2.71254e-04
 Reference value :  2.71255e-04
 Reference value :  2.71255e-04
 Reference value :  2.71256e-04
 Reference value :  2.71257e-04
 Reference value :  2.71258e-04
 Reference value :  2.71259e-04
 Reference value :  2.71261e-04
 Reference value :  2.71263e-04
 Reference value :  2.71266e-04
 Reference value :  2.71271e-04
 Reference value :  2.71280e-04
 Reference value :  2.71297e-04
 Reference value :  2.71333e-04
 Reference value :  2.71404e-04
 Reference value :  2.71500e-04
 Reference value :  2.71500e-04
 Reference value :  2.71500e-04
 Reference value :  2.71500e-04
 Reference value :  2.71500e-04
 Reference value :  2.71500e-04
 Reference value :  2.71500e-04
 Reference value :  2.71500e-04
 Reference value :  2.71500e-04
 Reference value :  2.71500e-04
 Reference value :  2.71500e-04
 Reference value :  2.71501e-04
 Reference value :  2.71501e-04
 Reference value :  2.71501e-04
 Reference value :  2.71502e-04
 Reference value :  2.71502e-04
 Reference value :  2.71503e-04
 Reference value :  2.71504e-04
 Reference value :  2.71505e-04
 Reference value :  2.71505e-04
 Reference value :  2.71506e-04
 Reference value :  2.71507e-04
 Reference value :  2.71508e-04
 Reference value :  2.71508e-04
 Reference value :  2.71510e-04
 Reference value :  2.71511e-04
 Reference value :  2.71513e-04
 Reference value :  2.71516e-04
 Reference value :  2.71518e-04
 Reference value :  2.71520e-04
 Reference value :  2.71522e-04
 Reference value :  2.71524e-04
 Reference value :  2.71528e-04
 Reference value :  2.71533e-04
 Reference value :  2.71542e-04
 Reference value :  2.71556e-04
 Reference value :  2.71580e-04
 Reference value :  2.71622e-04
 Reference value :  2.71695e-04
 Reference value :  2.71750e-04
 Reference value :  2.71750e-04
 Reference value :  2.71750e-04
 Reference value :  2.71750e-04
 Reference value :  2.71750e-04
 Reference value :  2.71750e-04
 Reference value :  2.71750e-04
 Reference value :  2.71750e-04
 Reference value :  2.71750e-04
 Reference value :  2.71750e-04
 Reference value :  2.71750e-04
 Reference value :  2.71750e-04
 Reference value :  2.71750e-04
 Reference value :  2.71751e-04
 Reference value :  2.71751e-04
 Reference value :  2.71751e-04
 Reference value :  2.71752e-04
 Reference value :  2.71753e-04
 Reference value :  2.71753e-04
 Reference value :  2.71754e-04
 Reference value :  2.71755e-04
 Reference value :  2.71756e-04
 Reference value :  2.71758e-04
 Reference value :  2.71759e-04
 Reference value :  2.71761e-04
 Reference value :  2.71764e-04
 Reference value :  2.71767e-04
 Reference value :  2.71773e-04
 Reference value :  2.71784e-04
 Reference value :  2.71807e-04
 Reference value :  2.71851e-04
 Reference value :  2.71941e-04
 Reference value :  2.72000e-04
No. of Data Rows : 41496
ngspice-44 done
