
Note: Compatibility modes selected: hs a


Circuit: ** sch_path: /home/audrey/cace/sar-adc-using-sky130-pdk/runs/run_2025-08-29_18-41-33/parameters/power/run_2/power_consumption.sch

option SCALE: Scale is set to 1e-06 for instance and model parameters
option SCALE: Scale is set to 1e-06 for instance and model parameters
option SCALE: Scale is set to 1e-06 for instance and model parameters
option SCALE: Scale is set to 1e-06 for instance and model parameters
Doing analysis at TEMP = 27.000000 and TNOM = 27.000000

Using KLU as Direct Linear Solver
Operating point simulation skipped by 'uic',
  now using transient initial conditions.
 Reference value :  5.00000e-12
 Reference value :  5.13107e-12
 Reference value :  5.39322e-12
 Reference value :  5.91750e-12
 Reference value :  6.96608e-12
 Reference value :  8.82809e-12
 Reference value :  1.18486e-11
 Reference value :  1.72978e-11
 Reference value :  2.79196e-11
 Reference value :  4.11814e-11
 Reference value :  6.54335e-11
 Reference value :  9.43906e-11
 Reference value :  1.46034e-10
 Reference value :  2.06451e-10
 Reference value :  3.27286e-10
 Reference value :  4.62290e-10
 Reference value :  5.00000e-10
 Reference value :  5.04550e-10
 Reference value :  5.13651e-10
 Reference value :  5.31852e-10
 Reference value :  5.68255e-10
 Reference value :  6.41060e-10
 Reference value :  7.86670e-10
 Reference value :  1.07789e-09
 Reference value :  1.66033e-09
 Reference value :  2.82521e-09
 Reference value :  4.19753e-09
 Reference value :  6.69477e-09
 Reference value :  1.07453e-08
 Reference value :  1.60808e-08
 Reference value :  2.56603e-08
 Reference value :  3.71999e-08
 Reference value :  5.51124e-08
 Reference value :  8.11937e-08
 Reference value :  1.33356e-07
 Reference value :  2.37682e-07
 Reference value :  4.46332e-07
 Reference value :  5.00000e-07
 Reference value :  5.25472e-07
 Reference value :  5.76417e-07
 Reference value :  6.78306e-07
 Reference value :  8.82084e-07
 Reference value :  1.00050e-06
 Reference value :  1.00055e-06
 Reference value :  1.00065e-06
 Reference value :  1.00085e-06
 Reference value :  1.00100e-06
 Reference value :  1.00103e-06
 Reference value :  1.00110e-06
 Reference value :  1.00124e-06
 Reference value :  1.00151e-06
 Reference value :  1.00201e-06
 Reference value :  1.00257e-06
 Reference value :  1.00347e-06
 Reference value :  1.00478e-06
 Reference value :  1.00707e-06
 Reference value :  1.01086e-06
 Reference value :  1.01845e-06
 Reference value :  1.02614e-06
 Reference value :  1.03645e-06
 Reference value :  1.04811e-06
 Reference value :  1.05922e-06
 Reference value :  1.07491e-06
 Reference value :  1.09136e-06
 Reference value :  1.10639e-06
 Reference value :  1.11862e-06
 Reference value :  1.12944e-06
 Reference value :  1.13780e-06
 Reference value :  1.14419e-06
 Reference value :  1.15048e-06
 Reference value :  1.15636e-06
 Reference value :  1.16295e-06
 Reference value :  1.16853e-06
 Reference value :  1.17440e-06
 Reference value :  1.18004e-06
 Reference value :  1.18524e-06
 Reference value :  1.19200e-06
 Reference value :  1.19890e-06
 Reference value :  1.20012e-06
 Reference value :  1.20256e-06
 Reference value :  1.20744e-06
 Reference value :  1.21429e-06
 Reference value :  1.22169e-06
 Reference value :  1.22745e-06
 Reference value :  1.23284e-06
 Reference value :  1.23846e-06
 Reference value :  1.24576e-06
 Reference value :  1.25324e-06
 Reference value :  1.26372e-06
 Reference value :  1.27660e-06
 Reference value :  1.29396e-06
 Reference value :  1.30849e-06
 Reference value :  1.31869e-06
 Reference value :  1.32993e-06
 Reference value :  1.34130e-06
 Reference value :  1.35657e-06
 Reference value :  1.38382e-06
 Reference value :  1.40973e-06
 Reference value :  1.43347e-06
 Reference value :  1.43701e-06
 Reference value :  1.44408e-06
 Reference value :  1.45823e-06
 Reference value :  1.47300e-06
 Reference value :  1.48799e-06
 Reference value :  1.50617e-06
 Reference value :  1.52357e-06
 Reference value :  1.54449e-06
 Reference value :  1.56562e-06
 Reference value :  1.59924e-06
 Reference value :  1.63995e-06
 Reference value :  1.70792e-06
 Reference value :  1.81035e-06
 Reference value :  1.92873e-06
 Reference value :  2.00000e-06
 Reference value :  2.00005e-06
 Reference value :  2.00015e-06
 Reference value :  2.00035e-06
 Reference value :  2.00050e-06
 Reference value :  2.00051e-06
 Reference value :  2.00053e-06
 Reference value :  2.00056e-06
 Reference value :  2.00064e-06
 Reference value :  2.00079e-06
 Reference value :  2.00108e-06
 Reference value :  2.00167e-06
 Reference value :  2.00255e-06
 Reference value :  2.00378e-06
 Reference value :  2.00564e-06
 Reference value :  2.00792e-06
 Reference value :  2.01089e-06
 Reference value :  2.01427e-06
 Reference value :  2.02103e-06
 Reference value :  2.03456e-06
 Reference value :  2.06161e-06
 Reference value :  2.09518e-06
 Reference value :  2.14155e-06
 Reference value :  2.17772e-06
 Reference value :  2.20904e-06
 Reference value :  2.24220e-06
 Reference value :  2.27521e-06
 Reference value :  2.30932e-06
 Reference value :  2.35050e-06
 Reference value :  2.39651e-06
 Reference value :  2.45460e-06
 Reference value :  2.52705e-06
 Reference value :  2.62063e-06
 Reference value :  2.74570e-06
 Reference value :  2.91275e-06
 Reference value :  3.00050e-06
 Reference value :  3.00055e-06
 Reference value :  3.00065e-06
 Reference value :  3.00085e-06
 Reference value :  3.00100e-06
 Reference value :  3.00103e-06
 Reference value :  3.00110e-06
 Reference value :  3.00123e-06
 Reference value :  3.00149e-06
 Reference value :  3.00181e-06
 Reference value :  3.00217e-06
 Reference value :  3.00275e-06
 Reference value :  3.00382e-06
 Reference value :  3.00595e-06
 Reference value :  3.01022e-06
 Reference value :  3.01876e-06
 Reference value :  3.03583e-06
 Reference value :  3.05927e-06
 Reference value :  3.09295e-06
 Reference value :  3.13114e-06
 Reference value :  3.17515e-06
 Reference value :  3.20488e-06
 Reference value :  3.23398e-06
 Reference value :  3.26616e-06
 Reference value :  3.30002e-06
 Reference value :  3.34108e-06
 Reference value :  3.38936e-06
 Reference value :  3.44984e-06
 Reference value :  3.52697e-06
 Reference value :  3.62665e-06
 Reference value :  3.73639e-06
 Reference value :  3.81113e-06
 Reference value :  3.88104e-06
 Reference value :  3.94519e-06
 Reference value :  4.00000e-06
 Reference value :  4.00005e-06
 Reference value :  4.00015e-06
 Reference value :  4.00035e-06
 Reference value :  4.00050e-06
 Reference value :  4.00051e-06
 Reference value :  4.00053e-06
 Reference value :  4.00056e-06
 Reference value :  4.00064e-06
 Reference value :  4.00078e-06
 Reference value :  4.00108e-06
 Reference value :  4.00166e-06
 Reference value :  4.00283e-06
 Reference value :  4.00516e-06
 Reference value :  4.00758e-06
 Reference value :  4.01167e-06
 Reference value :  4.01679e-06
 Reference value :  4.02380e-06
 Reference value :  4.03181e-06
 Reference value :  4.04546e-06
 Reference value :  4.06902e-06
 Reference value :  4.10962e-06
 Reference value :  4.19078e-06
 Reference value :  4.34117e-06
 Reference value :  4.50331e-06
 Reference value :  4.75366e-06
 Reference value :  5.00050e-06
 Reference value :  5.00055e-06
 Reference value :  5.00065e-06
 Reference value :  5.00085e-06
 Reference value :  5.00100e-06
 Reference value :  5.00103e-06
 Reference value :  5.00109e-06
 Reference value :  5.00120e-06
 Reference value :  5.00143e-06
 Reference value :  5.00172e-06
 Reference value :  5.00211e-06
 Reference value :  5.00266e-06
 Reference value :  5.00377e-06
 Reference value :  5.00598e-06
 Reference value :  5.01040e-06
 Reference value :  5.01924e-06
 Reference value :  5.03693e-06
 Reference value :  5.06458e-06
 Reference value :  5.09838e-06
 Reference value :  5.14522e-06
 Reference value :  5.20831e-06
 Reference value :  5.30188e-06
 Reference value :  5.43405e-06
 Reference value :  5.57589e-06
 Reference value :  5.58010e-06
 Reference value :  5.58852e-06
 Reference value :  5.60535e-06
 Reference value :  5.63903e-06
 Reference value :  5.70637e-06
 Reference value :  5.77375e-06
 Reference value :  5.84148e-06
 Reference value :  5.89040e-06
 Reference value :  5.93590e-06
 Reference value :  6.00000e-06
 Reference value :  6.00005e-06
 Reference value :  6.00015e-06
 Reference value :  6.00035e-06
 Reference value :  6.00050e-06
 Reference value :  6.00051e-06
 Reference value :  6.00054e-06
 Reference value :  6.00058e-06
 Reference value :  6.00068e-06
 Reference value :  6.00087e-06
 Reference value :  6.00125e-06
 Reference value :  6.00201e-06
 Reference value :  6.00353e-06
 Reference value :  6.00538e-06
 Reference value :  6.00824e-06
 Reference value :  6.01213e-06
 Reference value :  6.01771e-06
 Reference value :  6.02462e-06
 Reference value :  6.03251e-06
 Reference value :  6.04830e-06
 Reference value :  6.07988e-06
 Reference value :  6.14303e-06
 Reference value :  6.22744e-06
 Reference value :  6.36787e-06
 Reference value :  6.56164e-06
 Reference value :  6.84831e-06
 Reference value :  7.00050e-06
 Reference value :  7.00055e-06
 Reference value :  7.00065e-06
 Reference value :  7.00085e-06
 Reference value :  7.00100e-06
 Reference value :  7.00103e-06
 Reference value :  7.00109e-06
 Reference value :  7.00122e-06
 Reference value :  7.00147e-06
 Reference value :  7.00177e-06
 Reference value :  7.00219e-06
 Reference value :  7.00275e-06
 Reference value :  7.00388e-06
 Reference value :  7.00615e-06
 Reference value :  7.01067e-06
 Reference value :  7.01972e-06
 Reference value :  7.03781e-06
 Reference value :  7.07400e-06
 Reference value :  7.13607e-06
 Reference value :  7.19687e-06
 Reference value :  7.24641e-06
 Reference value :  7.29575e-06
 Reference value :  7.33556e-06
 Reference value :  7.37980e-06
 Reference value :  7.44787e-06
 Reference value :  7.51894e-06
 Reference value :  7.63088e-06
 Reference value :  7.77609e-06
 Reference value :  7.98316e-06
 Reference value :  8.00000e-06
 Reference value :  8.00005e-06
 Reference value :  8.00015e-06
 Reference value :  8.00035e-06
 Reference value :  8.00050e-06
 Reference value :  8.00051e-06
 Reference value :  8.00053e-06
 Reference value :  8.00057e-06
 Reference value :  8.00066e-06
 Reference value :  8.00083e-06
 Reference value :  8.00117e-06
 Reference value :  8.00185e-06
 Reference value :  8.00321e-06
 Reference value :  8.00593e-06
 Reference value :  8.01136e-06
 Reference value :  8.02067e-06
 Reference value :  8.03043e-06
 Reference value :  8.04743e-06
 Reference value :  8.08144e-06
 Reference value :  8.11234e-06
 Reference value :  8.14130e-06
 Reference value :  8.17595e-06
 Reference value :  8.20841e-06
 Reference value :  8.24632e-06
 Reference value :  8.28463e-06
 Reference value :  8.32743e-06
 Reference value :  8.39259e-06
 Reference value :  8.47543e-06
 Reference value :  8.61147e-06
 Reference value :  8.76871e-06
 Reference value :  8.93375e-06
 Reference value :  9.00050e-06
 Reference value :  9.00055e-06
 Reference value :  9.00065e-06
 Reference value :  9.00085e-06
 Reference value :  9.00100e-06
 Reference value :  9.00103e-06
 Reference value :  9.00109e-06
 Reference value :  9.00122e-06
 Reference value :  9.00146e-06
 Reference value :  9.00176e-06
 Reference value :  9.00218e-06
 Reference value :  9.00274e-06
 Reference value :  9.00387e-06
 Reference value :  9.00613e-06
 Reference value :  9.01065e-06
 Reference value :  9.01969e-06
 Reference value :  9.03778e-06
 Reference value :  9.06178e-06
 Reference value :  9.09387e-06
 Reference value :  9.14614e-06
 Reference value :  9.24790e-06
 Reference value :  9.37760e-06
 Reference value :  9.58818e-06
 Reference value :  9.91898e-06
 Reference value :  1.00000e-05
 Reference value :  1.00000e-05
 Reference value :  1.00001e-05
 Reference value :  1.00003e-05
 Reference value :  1.00005e-05
 Reference value :  1.00005e-05
 Reference value :  1.00005e-05
 Reference value :  1.00006e-05
 Reference value :  1.00007e-05
 Reference value :  1.00008e-05
 Reference value :  1.00012e-05
 Reference value :  1.00019e-05
 Reference value :  1.00032e-05
 Reference value :  1.00059e-05
 Reference value :  1.00114e-05
 Reference value :  1.00205e-05
 Reference value :  1.00302e-05
 Reference value :  1.00475e-05
 Reference value :  1.00783e-05
 Reference value :  1.01092e-05
 Reference value :  1.01536e-05
 Reference value :  1.02098e-05
 Reference value :  1.03130e-05
 Reference value :  1.04621e-05
 Reference value :  1.07206e-05
 Reference value :  1.10005e-05
 Reference value :  1.10005e-05
 Reference value :  1.10006e-05
 Reference value :  1.10008e-05
 Reference value :  1.10010e-05
 Reference value :  1.10010e-05
 Reference value :  1.10011e-05
 Reference value :  1.10012e-05
 Reference value :  1.10015e-05
 Reference value :  1.10018e-05
 Reference value :  1.10022e-05
 Reference value :  1.10028e-05
 Reference value :  1.10039e-05
 Reference value :  1.10062e-05
 Reference value :  1.10107e-05
 Reference value :  1.10198e-05
 Reference value :  1.10380e-05
 Reference value :  1.10743e-05
 Reference value :  1.11257e-05
 Reference value :  1.11992e-05
 Reference value :  1.13050e-05
 Reference value :  1.14629e-05
 Reference value :  1.17544e-05
 Reference value :  1.20000e-05
 Reference value :  1.20000e-05
 Reference value :  1.20001e-05
 Reference value :  1.20003e-05
 Reference value :  1.20005e-05
 Reference value :  1.20005e-05
 Reference value :  1.20005e-05
 Reference value :  1.20006e-05
 Reference value :  1.20007e-05
 Reference value :  1.20008e-05
 Reference value :  1.20012e-05
 Reference value :  1.20018e-05
 Reference value :  1.20032e-05
 Reference value :  1.20059e-05
 Reference value :  1.20114e-05
 Reference value :  1.20205e-05
 Reference value :  1.20302e-05
 Reference value :  1.20475e-05
 Reference value :  1.20783e-05
 Reference value :  1.21092e-05
 Reference value :  1.21539e-05
 Reference value :  1.22100e-05
 Reference value :  1.23145e-05
 Reference value :  1.24648e-05
 Reference value :  1.27287e-05
 Reference value :  1.30005e-05
 Reference value :  1.30006e-05
 Reference value :  1.30007e-05
 Reference value :  1.30009e-05
 Reference value :  1.30010e-05
 Reference value :  1.30010e-05
 Reference value :  1.30011e-05
 Reference value :  1.30012e-05
 Reference value :  1.30015e-05
 Reference value :  1.30018e-05
 Reference value :  1.30022e-05
 Reference value :  1.30028e-05
 Reference value :  1.30039e-05
 Reference value :  1.30062e-05
 Reference value :  1.30107e-05
 Reference value :  1.30198e-05
 Reference value :  1.30380e-05
 Reference value :  1.30743e-05
 Reference value :  1.31257e-05
 Reference value :  1.31991e-05
 Reference value :  1.33048e-05
 Reference value :  1.34628e-05
 Reference value :  1.37540e-05
 Reference value :  1.40000e-05
 Reference value :  1.40000e-05
 Reference value :  1.40002e-05
 Reference value :  1.40004e-05
 Reference value :  1.40005e-05
 Reference value :  1.40005e-05
 Reference value :  1.40005e-05
 Reference value :  1.40006e-05
 Reference value :  1.40007e-05
 Reference value :  1.40008e-05
 Reference value :  1.40012e-05
 Reference value :  1.40018e-05
 Reference value :  1.40032e-05
 Reference value :  1.40059e-05
 Reference value :  1.40114e-05
 Reference value :  1.40205e-05
 Reference value :  1.40302e-05
 Reference value :  1.40475e-05
 Reference value :  1.40783e-05
 Reference value :  1.41092e-05
 Reference value :  1.41540e-05
 Reference value :  1.42100e-05
 Reference value :  1.43147e-05
 Reference value :  1.44651e-05
 Reference value :  1.47296e-05
 Reference value :  1.50005e-05
 Reference value :  1.50005e-05
 Reference value :  1.50007e-05
 Reference value :  1.50009e-05
 Reference value :  1.50010e-05
 Reference value :  1.50010e-05
 Reference value :  1.50011e-05
 Reference value :  1.50012e-05
 Reference value :  1.50015e-05
 Reference value :  1.50018e-05
 Reference value :  1.50022e-05
 Reference value :  1.50028e-05
 Reference value :  1.50039e-05
 Reference value :  1.50062e-05
 Reference value :  1.50107e-05
 Reference value :  1.50198e-05
 Reference value :  1.50380e-05
 Reference value :  1.50743e-05
 Reference value :  1.51257e-05
 Reference value :  1.51991e-05
 Reference value :  1.53049e-05
 Reference value :  1.54630e-05
 Reference value :  1.57544e-05
 Reference value :  1.60000e-05
 Reference value :  1.60000e-05
 Reference value :  1.60001e-05
 Reference value :  1.60004e-05
 Reference value :  1.60005e-05
 Reference value :  1.60005e-05
 Reference value :  1.60005e-05
 Reference value :  1.60006e-05
 Reference value :  1.60007e-05
 Reference value :  1.60008e-05
 Reference value :  1.60012e-05
 Reference value :  1.60018e-05
 Reference value :  1.60032e-05
 Reference value :  1.60059e-05
 Reference value :  1.60114e-05
 Reference value :  1.60205e-05
 Reference value :  1.60302e-05
 Reference value :  1.60475e-05
 Reference value :  1.60783e-05
 Reference value :  1.61092e-05
 Reference value :  1.61540e-05
 Reference value :  1.62100e-05
 Reference value :  1.63147e-05
 Reference value :  1.64652e-05
 Reference value :  1.67298e-05
 Reference value :  1.70005e-05
 Reference value :  1.70006e-05
 Reference value :  1.70007e-05
 Reference value :  1.70009e-05
 Reference value :  1.70010e-05
 Reference value :  1.70010e-05
 Reference value :  1.70011e-05
 Reference value :  1.70012e-05
 Reference value :  1.70015e-05
 Reference value :  1.70018e-05
 Reference value :  1.70022e-05
 Reference value :  1.70028e-05
 Reference value :  1.70039e-05
 Reference value :  1.70062e-05
 Reference value :  1.70107e-05
 Reference value :  1.70198e-05
 Reference value :  1.70380e-05
 Reference value :  1.70743e-05
 Reference value :  1.71257e-05
 Reference value :  1.71992e-05
 Reference value :  1.73050e-05
 Reference value :  1.74631e-05
 Reference value :  1.77547e-05
 Reference value :  1.80000e-05
 Reference value :  1.80001e-05
 Reference value :  1.80002e-05
 Reference value :  1.80004e-05
 Reference value :  1.80005e-05
 Reference value :  1.80005e-05
 Reference value :  1.80005e-05
 Reference value :  1.80006e-05
 Reference value :  1.80007e-05
 Reference value :  1.80008e-05
 Reference value :  1.80012e-05
 Reference value :  1.80018e-05
 Reference value :  1.80032e-05
 Reference value :  1.80059e-05
 Reference value :  1.80114e-05
 Reference value :  1.80205e-05
 Reference value :  1.80302e-05
 Reference value :  1.80475e-05
 Reference value :  1.80783e-05
 Reference value :  1.81092e-05
 Reference value :  1.81540e-05
 Reference value :  1.82100e-05
 Reference value :  1.83147e-05
 Reference value :  1.84652e-05
 Reference value :  1.87299e-05
 Reference value :  1.90005e-05
 Reference value :  1.90006e-05
 Reference value :  1.90007e-05
 Reference value :  1.90009e-05
 Reference value :  1.90010e-05
 Reference value :  1.90010e-05
 Reference value :  1.90011e-05
 Reference value :  1.90012e-05
 Reference value :  1.90015e-05
 Reference value :  1.90018e-05
 Reference value :  1.90022e-05
 Reference value :  1.90028e-05
 Reference value :  1.90039e-05
 Reference value :  1.90062e-05
 Reference value :  1.90107e-05
 Reference value :  1.90198e-05
 Reference value :  1.90380e-05
 Reference value :  1.90743e-05
 Reference value :  1.91257e-05
 Reference value :  1.91992e-05
 Reference value :  1.93050e-05
 Reference value :  1.94631e-05
 Reference value :  1.97548e-05
 Reference value :  2.00000e-05
 Reference value :  2.00001e-05
 Reference value :  2.00002e-05
 Reference value :  2.00004e-05
 Reference value :  2.00005e-05
 Reference value :  2.00005e-05
 Reference value :  2.00005e-05
 Reference value :  2.00006e-05
 Reference value :  2.00007e-05
 Reference value :  2.00008e-05
 Reference value :  2.00012e-05
 Reference value :  2.00018e-05
 Reference value :  2.00032e-05
 Reference value :  2.00059e-05
 Reference value :  2.00114e-05
 Reference value :  2.00205e-05
 Reference value :  2.00302e-05
 Reference value :  2.00475e-05
 Reference value :  2.00783e-05
 Reference value :  2.01092e-05
 Reference value :  2.01540e-05
 Reference value :  2.02100e-05
 Reference value :  2.03148e-05
 Reference value :  2.04652e-05
 Reference value :  2.07299e-05
 Reference value :  2.10005e-05
 Reference value :  2.10005e-05
 Reference value :  2.10006e-05
 Reference value :  2.10008e-05
 Reference value :  2.10010e-05
 Reference value :  2.10010e-05
 Reference value :  2.10011e-05
 Reference value :  2.10012e-05
 Reference value :  2.10015e-05
 Reference value :  2.10018e-05
 Reference value :  2.10022e-05
 Reference value :  2.10028e-05
 Reference value :  2.10039e-05
 Reference value :  2.10062e-05
 Reference value :  2.10107e-05
 Reference value :  2.10198e-05
 Reference value :  2.10380e-05
 Reference value :  2.10743e-05
 Reference value :  2.11257e-05
 Reference value :  2.11992e-05
 Reference value :  2.13050e-05
 Reference value :  2.14632e-05
 Reference value :  2.17548e-05
 Reference value :  2.20000e-05
 Reference value :  2.20000e-05
 Reference value :  2.20001e-05
 Reference value :  2.20004e-05
 Reference value :  2.20005e-05
 Reference value :  2.20005e-05
 Reference value :  2.20005e-05
 Reference value :  2.20006e-05
 Reference value :  2.20007e-05
 Reference value :  2.20008e-05
 Reference value :  2.20012e-05
 Reference value :  2.20018e-05
 Reference value :  2.20032e-05
 Reference value :  2.20059e-05
 Reference value :  2.20114e-05
 Reference value :  2.20205e-05
 Reference value :  2.20302e-05
 Reference value :  2.20475e-05
 Reference value :  2.20783e-05
 Reference value :  2.21092e-05
 Reference value :  2.21540e-05
 Reference value :  2.22100e-05
 Reference value :  2.23147e-05
 Reference value :  2.24652e-05
 Reference value :  2.27299e-05
 Reference value :  2.30005e-05
 Reference value :  2.30005e-05
 Reference value :  2.30006e-05
 Reference value :  2.30008e-05
 Reference value :  2.30010e-05
 Reference value :  2.30010e-05
 Reference value :  2.30011e-05
 Reference value :  2.30012e-05
 Reference value :  2.30015e-05
 Reference value :  2.30018e-05
 Reference value :  2.30022e-05
 Reference value :  2.30028e-05
 Reference value :  2.30039e-05
 Reference value :  2.30062e-05
 Reference value :  2.30107e-05
 Reference value :  2.30198e-05
 Reference value :  2.30380e-05
 Reference value :  2.30743e-05
 Reference value :  2.31257e-05
 Reference value :  2.31992e-05
 Reference value :  2.33050e-05
 Reference value :  2.34632e-05
 Reference value :  2.37548e-05
 Reference value :  2.40000e-05
 Reference value :  2.40001e-05
 Reference value :  2.40002e-05
 Reference value :  2.40004e-05
 Reference value :  2.40005e-05
 Reference value :  2.40005e-05
 Reference value :  2.40005e-05
 Reference value :  2.40006e-05
 Reference value :  2.40007e-05
 Reference value :  2.40008e-05
 Reference value :  2.40012e-05
 Reference value :  2.40018e-05
 Reference value :  2.40032e-05
 Reference value :  2.40059e-05
 Reference value :  2.40114e-05
 Reference value :  2.40205e-05
 Reference value :  2.40302e-05
 Reference value :  2.40475e-05
 Reference value :  2.40783e-05
 Reference value :  2.41092e-05
 Reference value :  2.41540e-05
 Reference value :  2.42100e-05
 Reference value :  2.43147e-05
 Reference value :  2.44652e-05
 Reference value :  2.47300e-05
 Reference value :  2.50005e-05
 Reference value :  2.50005e-05
 Reference value :  2.50006e-05
 Reference value :  2.50008e-05
 Reference value :  2.50010e-05
 Reference value :  2.50010e-05
 Reference value :  2.50011e-05
 Reference value :  2.50012e-05
 Reference value :  2.50015e-05
 Reference value :  2.50018e-05
 Reference value :  2.50022e-05
 Reference value :  2.50028e-05
 Reference value :  2.50039e-05
 Reference value :  2.50062e-05
 Reference value :  2.50107e-05
 Reference value :  2.50198e-05
 Reference value :  2.50380e-05
 Reference value :  2.50743e-05
 Reference value :  2.51257e-05
 Reference value :  2.51992e-05
 Reference value :  2.53050e-05
 Reference value :  2.54632e-05
 Reference value :  2.57549e-05
 Reference value :  2.60000e-05
 Reference value :  2.60001e-05
 Reference value :  2.60002e-05
 Reference value :  2.60004e-05
 Reference value :  2.60005e-05
 Reference value :  2.60005e-05
 Reference value :  2.60005e-05
 Reference value :  2.60006e-05
 Reference value :  2.60007e-05
 Reference value :  2.60008e-05
 Reference value :  2.60012e-05
 Reference value :  2.60018e-05
 Reference value :  2.60032e-05
 Reference value :  2.60059e-05
 Reference value :  2.60114e-05
 Reference value :  2.60205e-05
 Reference value :  2.60302e-05
 Reference value :  2.60475e-05
 Reference value :  2.60783e-05
 Reference value :  2.61092e-05
 Reference value :  2.61540e-05
 Reference value :  2.62100e-05
 Reference value :  2.63147e-05
 Reference value :  2.64652e-05
 Reference value :  2.67298e-05
 Reference value :  2.70005e-05
 Reference value :  2.70006e-05
 Reference value :  2.70007e-05
 Reference value :  2.70009e-05
 Reference value :  2.70010e-05
 Reference value :  2.70010e-05
 Reference value :  2.70011e-05
 Reference value :  2.70012e-05
 Reference value :  2.70015e-05
 Reference value :  2.70018e-05
 Reference value :  2.70022e-05
 Reference value :  2.70028e-05
 Reference value :  2.70039e-05
 Reference value :  2.70062e-05
 Reference value :  2.70107e-05
 Reference value :  2.70198e-05
 Reference value :  2.70380e-05
 Reference value :  2.70743e-05
 Reference value :  2.71257e-05
 Reference value :  2.71992e-05
 Reference value :  2.73050e-05
 Reference value :  2.74632e-05
 Reference value :  2.77548e-05
 Reference value :  2.80000e-05
 Reference value :  2.80000e-05
 Reference value :  2.80001e-05
 Reference value :  2.80004e-05
 Reference value :  2.80005e-05
 Reference value :  2.80005e-05
 Reference value :  2.80005e-05
 Reference value :  2.80006e-05
 Reference value :  2.80007e-05
 Reference value :  2.80008e-05
 Reference value :  2.80012e-05
 Reference value :  2.80018e-05
 Reference value :  2.80032e-05
 Reference value :  2.80059e-05
 Reference value :  2.80114e-05
 Reference value :  2.80205e-05
 Reference value :  2.80302e-05
 Reference value :  2.80475e-05
 Reference value :  2.80783e-05
 Reference value :  2.81092e-05
 Reference value :  2.81540e-05
 Reference value :  2.82100e-05
 Reference value :  2.83147e-05
 Reference value :  2.84652e-05
 Reference value :  2.87297e-05
 Reference value :  2.90005e-05
 Reference value :  2.90006e-05
 Reference value :  2.90007e-05
 Reference value :  2.90009e-05
 Reference value :  2.90010e-05
 Reference value :  2.90010e-05
 Reference value :  2.90011e-05
 Reference value :  2.90012e-05
 Reference value :  2.90015e-05
 Reference value :  2.90018e-05
 Reference value :  2.90022e-05
 Reference value :  2.90028e-05
 Reference value :  2.90039e-05
 Reference value :  2.90062e-05
 Reference value :  2.90107e-05
 Reference value :  2.90198e-05
 Reference value :  2.90380e-05
 Reference value :  2.90743e-05
 Reference value :  2.91257e-05
 Reference value :  2.91992e-05
 Reference value :  2.93050e-05
 Reference value :  2.94632e-05
 Reference value :  2.97548e-05
 Reference value :  3.00000e-05
 Reference value :  3.00001e-05
 Reference value :  3.00002e-05
 Reference value :  3.00004e-05
 Reference value :  3.00005e-05
 Reference value :  3.00005e-05
 Reference value :  3.00005e-05
 Reference value :  3.00006e-05
 Reference value :  3.00007e-05
 Reference value :  3.00008e-05
 Reference value :  3.00012e-05
 Reference value :  3.00018e-05
 Reference value :  3.00032e-05
 Reference value :  3.00059e-05
 Reference value :  3.00114e-05
 Reference value :  3.00205e-05
 Reference value :  3.00302e-05
 Reference value :  3.00475e-05
 Reference value :  3.00783e-05
 Reference value :  3.01092e-05
 Reference value :  3.01540e-05
 Reference value :  3.02100e-05
 Reference value :  3.03147e-05
 Reference value :  3.04651e-05
 Reference value :  3.07297e-05
 Reference value :  3.10005e-05
 Reference value :  3.10005e-05
 Reference value :  3.10006e-05
 Reference value :  3.10008e-05
 Reference value :  3.10010e-05
 Reference value :  3.10010e-05
 Reference value :  3.10011e-05
 Reference value :  3.10012e-05
 Reference value :  3.10015e-05
 Reference value :  3.10018e-05
 Reference value :  3.10022e-05
 Reference value :  3.10028e-05
 Reference value :  3.10039e-05
 Reference value :  3.10062e-05
 Reference value :  3.10107e-05
 Reference value :  3.10198e-05
 Reference value :  3.10380e-05
 Reference value :  3.10743e-05
 Reference value :  3.11257e-05
 Reference value :  3.11992e-05
 Reference value :  3.13050e-05
 Reference value :  3.14632e-05
 Reference value :  3.17548e-05
 Reference value :  3.20000e-05
 Reference value :  3.20000e-05
 Reference value :  3.20001e-05
 Reference value :  3.20003e-05
 Reference value :  3.20005e-05
 Reference value :  3.20005e-05
 Reference value :  3.20005e-05
 Reference value :  3.20006e-05
 Reference value :  3.20007e-05
 Reference value :  3.20008e-05
 Reference value :  3.20012e-05
 Reference value :  3.20018e-05
 Reference value :  3.20032e-05
 Reference value :  3.20059e-05
 Reference value :  3.20114e-05
 Reference value :  3.20205e-05
 Reference value :  3.20302e-05
 Reference value :  3.20475e-05
 Reference value :  3.20782e-05
 Reference value :  3.21092e-05
 Reference value :  3.21540e-05
 Reference value :  3.22099e-05
 Reference value :  3.23147e-05
 Reference value :  3.24652e-05
 Reference value :  3.27301e-05
 Reference value :  3.30005e-05
 Reference value :  3.30006e-05
 Reference value :  3.30007e-05
 Reference value :  3.30009e-05
 Reference value :  3.30010e-05
 Reference value :  3.30010e-05
 Reference value :  3.30011e-05
 Reference value :  3.30012e-05
 Reference value :  3.30015e-05
 Reference value :  3.30018e-05
 Reference value :  3.30022e-05
 Reference value :  3.30028e-05
 Reference value :  3.30039e-05
 Reference value :  3.30062e-05
 Reference value :  3.30107e-05
 Reference value :  3.30198e-05
 Reference value :  3.30380e-05
 Reference value :  3.30743e-05
 Reference value :  3.31257e-05
 Reference value :  3.31992e-05
 Reference value :  3.33050e-05
 Reference value :  3.34632e-05
 Reference value :  3.37548e-05
 Reference value :  3.40000e-05
No. of Data Rows : 928
ngspice-44 done
