
Note: Compatibility modes selected: hs a


Circuit: ** sch_path: /home/ece/cace/sar-adc-using-sky130-pdk/runs/run_2025-09-11_04-26-08/parameters/dnl/run_0/sar_output_dnl.sch

option SCALE: Scale is set to 1e-06 for instance and model parameters
option SCALE: Scale is set to 1e-06 for instance and model parameters
option SCALE: Scale is set to 1e-06 for instance and model parameters
option SCALE: Scale is set to 1e-06 for instance and model parameters
Doing analysis at TEMP = 27.000000 and TNOM = 27.000000

Using KLU as Direct Linear Solver
Operating point simulation skipped by 'uic',
  now using transient initial conditions.
 Reference value :  1.00000e-12
 Reference value :  1.02772e-12
 Reference value :  1.08316e-12
 Reference value :  1.19404e-12
 Reference value :  1.33846e-12
 Reference value :  1.62729e-12
 Reference value :  2.20497e-12
 Reference value :  3.05898e-12
 Reference value :  3.96142e-12
 Reference value :  5.17456e-12
 Reference value :  6.89009e-12
 Reference value :  1.02491e-11
 Reference value :  1.40874e-11
 Reference value :  2.09022e-11
 Reference value :  2.76780e-11
 Reference value :  3.67715e-11
 Reference value :  4.81019e-11
 Reference value :  6.53862e-11
 Reference value :  8.51292e-11
 Reference value :  1.00000e-10
 Reference value :  1.01260e-10
 Reference value :  1.03780e-10
 Reference value :  1.08821e-10
 Reference value :  1.18901e-10
 Reference value :  1.39063e-10
 Reference value :  1.79386e-10
 Reference value :  2.60031e-10
 Reference value :  4.11762e-10
 Reference value :  5.77743e-10
 Reference value :  8.46679e-10
 Reference value :  1.19306e-09
 Reference value :  1.65687e-09
 Reference value :  2.27098e-09
 Reference value :  3.09145e-09
 Reference value :  3.92216e-09
 Reference value :  4.61880e-09
 Reference value :  5.45882e-09
 Reference value :  6.41698e-09
 Reference value :  7.44586e-09
 Reference value :  9.16107e-09
 Reference value :  1.09358e-08
 Reference value :  1.27325e-08
 Reference value :  1.43890e-08
 Reference value :  1.60726e-08
 Reference value :  1.76559e-08
 Reference value :  1.93499e-08
 Reference value :  2.15172e-08
 Reference value :  2.56753e-08
 Reference value :  3.11453e-08
 Reference value :  3.76333e-08
 Reference value :  4.41397e-08
 Reference value :  4.93195e-08
 Reference value :  5.42380e-08
 Reference value :  5.79579e-08
 Reference value :  6.19795e-08
 Reference value :  6.69352e-08
 Reference value :  7.33743e-08
 Reference value :  7.97630e-08
 Reference value :  8.58903e-08
 Reference value :  9.33181e-08
 Reference value :  1.05179e-07
 Reference value :  1.22723e-07
 Reference value :  1.56579e-07
 Reference value :  2.20569e-07
 Reference value :  2.50100e-07
 Reference value :  2.50110e-07
 Reference value :  2.50130e-07
 Reference value :  2.50170e-07
 Reference value :  2.50200e-07
 Reference value :  2.50201e-07
 Reference value :  2.50202e-07
 Reference value :  2.50204e-07
 Reference value :  2.50208e-07
 Reference value :  2.50216e-07
 Reference value :  2.50233e-07
 Reference value :  2.50266e-07
 Reference value :  2.50333e-07
 Reference value :  2.50410e-07
 Reference value :  2.50565e-07
 Reference value :  2.50712e-07
 Reference value :  2.51007e-07
 Reference value :  2.51337e-07
 Reference value :  2.51818e-07
 Reference value :  2.52369e-07
 Reference value :  2.52973e-07
 Reference value :  2.53865e-07
 Reference value :  2.54617e-07
 Reference value :  2.55426e-07
 Reference value :  2.56214e-07
 Reference value :  2.57070e-07
 Reference value :  2.57896e-07
 Reference value :  2.59398e-07
 Reference value :  2.61440e-07
 Reference value :  2.63594e-07
 Reference value :  2.67014e-07
 Reference value :  2.71809e-07
 Reference value :  2.81399e-07
 Reference value :  3.00579e-07
 Reference value :  3.36553e-07
 Reference value :  4.08500e-07
 Reference value :  5.00000e-07
 Reference value :  5.00010e-07
 Reference value :  5.00030e-07
 Reference value :  5.00070e-07
 Reference value :  5.00100e-07
 Reference value :  5.00104e-07
 Reference value :  5.00113e-07
 Reference value :  5.00130e-07
 Reference value :  5.00163e-07
 Reference value :  5.00231e-07
 Reference value :  5.00366e-07
 Reference value :  5.00553e-07
 Reference value :  5.00927e-07
 Reference value :  5.01510e-07
 Reference value :  5.02042e-07
 Reference value :  5.02618e-07
 Reference value :  5.03247e-07
 Reference value :  5.04059e-07
 Reference value :  5.04791e-07
 Reference value :  5.05614e-07
 Reference value :  5.06653e-07
 Reference value :  5.07722e-07
 Reference value :  5.09650e-07
 Reference value :  5.12141e-07
 Reference value :  5.13891e-07
 Reference value :  5.15918e-07
 Reference value :  5.18210e-07
 Reference value :  5.20533e-07
 Reference value :  5.23145e-07
 Reference value :  5.27752e-07
 Reference value :  5.34271e-07
 Reference value :  5.44454e-07
 Reference value :  5.64672e-07
 Reference value :  5.96343e-07
 Reference value :  6.57161e-07
 Reference value :  7.50100e-07
 Reference value :  7.50110e-07
 Reference value :  7.50130e-07
 Reference value :  7.50170e-07
 Reference value :  7.50200e-07
 Reference value :  7.50201e-07
 Reference value :  7.50202e-07
 Reference value :  7.50205e-07
 Reference value :  7.50211e-07
 Reference value :  7.50223e-07
 Reference value :  7.50247e-07
 Reference value :  7.50295e-07
 Reference value :  7.50390e-07
 Reference value :  7.50580e-07
 Reference value :  7.50954e-07
 Reference value :  7.51429e-07
 Reference value :  7.51992e-07
 Reference value :  7.52594e-07
 Reference value :  7.53250e-07
 Reference value :  7.54105e-07
 Reference value :  7.54726e-07
 Reference value :  7.55454e-07
 Reference value :  7.56124e-07
 Reference value :  7.56857e-07
 Reference value :  7.57770e-07
 Reference value :  7.58766e-07
 Reference value :  7.59797e-07
 Reference value :  7.61313e-07
 Reference value :  7.62882e-07
 Reference value :  7.65189e-07
 Reference value :  7.67902e-07
 Reference value :  7.72090e-07
 Reference value :  7.80466e-07
 Reference value :  7.92921e-07
 Reference value :  8.17831e-07
 Reference value :  8.67650e-07
 Reference value :  9.67290e-07
 Reference value :  1.00000e-06
 Reference value :  1.00001e-06
 Reference value :  1.00003e-06
 Reference value :  1.00007e-06
 Reference value :  1.00010e-06
 Reference value :  1.00010e-06
 Reference value :  1.00011e-06
 Reference value :  1.00013e-06
 Reference value :  1.00016e-06
 Reference value :  1.00023e-06
 Reference value :  1.00037e-06
 Reference value :  1.00055e-06
 Reference value :  1.00093e-06
 Reference value :  1.00151e-06
 Reference value :  1.00204e-06
 Reference value :  1.00261e-06
 Reference value :  1.00329e-06
 Reference value :  1.00407e-06
 Reference value :  1.00484e-06
 Reference value :  1.00553e-06
 Reference value :  1.00624e-06
 Reference value :  1.00696e-06
 Reference value :  1.00774e-06
 Reference value :  1.00853e-06
 Reference value :  1.00963e-06
 Reference value :  1.01103e-06
 Reference value :  1.01321e-06
 Reference value :  1.01469e-06
 Reference value :  1.01633e-06
 Reference value :  1.01798e-06
 Reference value :  1.01944e-06
 Reference value :  1.02059e-06
 Reference value :  1.02182e-06
 Reference value :  1.02322e-06
 Reference value :  1.02478e-06
 Reference value :  1.02639e-06
 Reference value :  1.02900e-06
 Reference value :  1.03200e-06
 Reference value :  1.03801e-06
 Reference value :  1.04807e-06
 Reference value :  1.06489e-06
 Reference value :  1.09282e-06
 Reference value :  1.14799e-06
 Reference value :  1.21064e-06
 Reference value :  1.25010e-06
 Reference value :  1.25011e-06
 Reference value :  1.25013e-06
 Reference value :  1.25017e-06
 Reference value :  1.25020e-06
 Reference value :  1.25020e-06
 Reference value :  1.25020e-06
 Reference value :  1.25021e-06
 Reference value :  1.25021e-06
 Reference value :  1.25022e-06
 Reference value :  1.25025e-06
 Reference value :  1.25029e-06
 Reference value :  1.25039e-06
 Reference value :  1.25057e-06
 Reference value :  1.25090e-06
 Reference value :  1.25140e-06
 Reference value :  1.25202e-06
 Reference value :  1.25261e-06
 Reference value :  1.25328e-06
 Reference value :  1.25410e-06
 Reference value :  1.25470e-06
 Reference value :  1.25539e-06
 Reference value :  1.25628e-06
 Reference value :  1.25712e-06
 Reference value :  1.25824e-06
 Reference value :  1.26017e-06
 Reference value :  1.26209e-06
 Reference value :  1.26518e-06
 Reference value :  1.26905e-06
 Reference value :  1.27680e-06
 Reference value :  1.29229e-06
 Reference value :  1.32328e-06
 Reference value :  1.38526e-06
 Reference value :  1.47679e-06
 Reference value :  1.50000e-06
 Reference value :  1.50001e-06
 Reference value :  1.50003e-06
 Reference value :  1.50007e-06
 Reference value :  1.50010e-06
 Reference value :  1.50010e-06
 Reference value :  1.50011e-06
 Reference value :  1.50013e-06
 Reference value :  1.50016e-06
 Reference value :  1.50023e-06
 Reference value :  1.50036e-06
 Reference value :  1.50054e-06
 Reference value :  1.50089e-06
 Reference value :  1.50139e-06
 Reference value :  1.50190e-06
 Reference value :  1.50240e-06
 Reference value :  1.50303e-06
 Reference value :  1.50367e-06
 Reference value :  1.50454e-06
 Reference value :  1.50535e-06
 Reference value :  1.50630e-06
 Reference value :  1.50761e-06
 Reference value :  1.50906e-06
 Reference value :  1.51045e-06
 Reference value :  1.51188e-06
 Reference value :  1.51319e-06
 Reference value :  1.51462e-06
 Reference value :  1.51603e-06
 Reference value :  1.51768e-06
 Reference value :  1.52097e-06
 Reference value :  1.52622e-06
 Reference value :  1.53671e-06
 Reference value :  1.55770e-06
 Reference value :  1.59968e-06
 Reference value :  1.68363e-06
 Reference value :  1.75010e-06
 Reference value :  1.75011e-06
 Reference value :  1.75013e-06
 Reference value :  1.75017e-06
 Reference value :  1.75020e-06
 Reference value :  1.75020e-06
 Reference value :  1.75020e-06
 Reference value :  1.75021e-06
 Reference value :  1.75021e-06
 Reference value :  1.75022e-06
 Reference value :  1.75025e-06
 Reference value :  1.75029e-06
 Reference value :  1.75039e-06
 Reference value :  1.75058e-06
 Reference value :  1.75091e-06
 Reference value :  1.75141e-06
 Reference value :  1.75204e-06
 Reference value :  1.75262e-06
 Reference value :  1.75330e-06
 Reference value :  1.75415e-06
 Reference value :  1.75475e-06
 Reference value :  1.75545e-06
 Reference value :  1.75615e-06
 Reference value :  1.75688e-06
 Reference value :  1.75783e-06
 Reference value :  1.75886e-06
 Reference value :  1.76004e-06
 Reference value :  1.76145e-06
 Reference value :  1.76351e-06
 Reference value :  1.76556e-06
 Reference value :  1.76910e-06
 Reference value :  1.77357e-06
 Reference value :  1.78252e-06
 Reference value :  1.80041e-06
 Reference value :  1.83618e-06
 Reference value :  1.90774e-06
 Reference value :  2.00000e-06
 Reference value :  2.00001e-06
 Reference value :  2.00003e-06
 Reference value :  2.00007e-06
 Reference value :  2.00010e-06
 Reference value :  2.00010e-06
 Reference value :  2.00011e-06
 Reference value :  2.00013e-06
 Reference value :  2.00016e-06
 Reference value :  2.00023e-06
 Reference value :  2.00036e-06
 Reference value :  2.00054e-06
 Reference value :  2.00089e-06
 Reference value :  2.00139e-06
 Reference value :  2.00190e-06
 Reference value :  2.00243e-06
 Reference value :  2.00309e-06
 Reference value :  2.00375e-06
 Reference value :  2.00452e-06
 Reference value :  2.00515e-06
 Reference value :  2.00585e-06
 Reference value :  2.00653e-06
 Reference value :  2.00722e-06
 Reference value :  2.00797e-06
 Reference value :  2.00886e-06
 Reference value :  2.00988e-06
 Reference value :  2.01149e-06
 Reference value :  2.01378e-06
 Reference value :  2.01532e-06
 Reference value :  2.01706e-06
 Reference value :  2.01870e-06
 Reference value :  2.01995e-06
 Reference value :  2.02112e-06
 Reference value :  2.02221e-06
 Reference value :  2.02347e-06
 Reference value :  2.02497e-06
 Reference value :  2.02646e-06
 Reference value :  2.02899e-06
 Reference value :  2.03202e-06
 Reference value :  2.03808e-06
 Reference value :  2.04805e-06
 Reference value :  2.06092e-06
 Reference value :  2.08527e-06
 Reference value :  2.12476e-06
 Reference value :  2.17902e-06
 Reference value :  2.25010e-06
 Reference value :  2.25011e-06
 Reference value :  2.25013e-06
 Reference value :  2.25017e-06
 Reference value :  2.25020e-06
 Reference value :  2.25020e-06
 Reference value :  2.25020e-06
 Reference value :  2.25021e-06
 Reference value :  2.25021e-06
 Reference value :  2.25022e-06
 Reference value :  2.25025e-06
 Reference value :  2.25029e-06
 Reference value :  2.25039e-06
 Reference value :  2.25058e-06
 Reference value :  2.25091e-06
 Reference value :  2.25141e-06
 Reference value :  2.25198e-06
 Reference value :  2.25258e-06
 Reference value :  2.25323e-06
 Reference value :  2.25406e-06
 Reference value :  2.25467e-06
 Reference value :  2.25538e-06
 Reference value :  2.25618e-06
 Reference value :  2.25700e-06
 Reference value :  2.25810e-06
 Reference value :  2.25980e-06
 Reference value :  2.26176e-06
 Reference value :  2.26453e-06
 Reference value :  2.26839e-06
 Reference value :  2.27611e-06
 Reference value :  2.29156e-06
 Reference value :  2.32245e-06
 Reference value :  2.37510e-06
 Reference value :  2.43204e-06
 Reference value :  2.49549e-06
 Reference value :  2.50000e-06
 Reference value :  2.50001e-06
 Reference value :  2.50003e-06
 Reference value :  2.50007e-06
 Reference value :  2.50010e-06
 Reference value :  2.50010e-06
 Reference value :  2.50011e-06
 Reference value :  2.50013e-06
 Reference value :  2.50016e-06
 Reference value :  2.50023e-06
 Reference value :  2.50037e-06
 Reference value :  2.50054e-06
 Reference value :  2.50090e-06
 Reference value :  2.50140e-06
 Reference value :  2.50191e-06
 Reference value :  2.50242e-06
 Reference value :  2.50304e-06
 Reference value :  2.50370e-06
 Reference value :  2.50456e-06
 Reference value :  2.50537e-06
 Reference value :  2.50630e-06
 Reference value :  2.50761e-06
 Reference value :  2.50905e-06
 Reference value :  2.51042e-06
 Reference value :  2.51186e-06
 Reference value :  2.51317e-06
 Reference value :  2.51458e-06
 Reference value :  2.51598e-06
 Reference value :  2.51763e-06
 Reference value :  2.52091e-06
 Reference value :  2.52593e-06
 Reference value :  2.53596e-06
 Reference value :  2.55602e-06
 Reference value :  2.59614e-06
 Reference value :  2.67638e-06
 Reference value :  2.75010e-06
 Reference value :  2.75011e-06
 Reference value :  2.75013e-06
 Reference value :  2.75017e-06
 Reference value :  2.75020e-06
 Reference value :  2.75020e-06
 Reference value :  2.75020e-06
 Reference value :  2.75021e-06
 Reference value :  2.75021e-06
 Reference value :  2.75022e-06
 Reference value :  2.75025e-06
 Reference value :  2.75029e-06
 Reference value :  2.75039e-06
 Reference value :  2.75058e-06
 Reference value :  2.75091e-06
 Reference value :  2.75140e-06
 Reference value :  2.75198e-06
 Reference value :  2.75258e-06
 Reference value :  2.75323e-06
 Reference value :  2.75407e-06
 Reference value :  2.75468e-06
 Reference value :  2.75540e-06
 Reference value :  2.75605e-06
 Reference value :  2.75678e-06
 Reference value :  2.75767e-06
 Reference value :  2.75867e-06
 Reference value :  2.75970e-06
 Reference value :  2.76119e-06
 Reference value :  2.76285e-06
 Reference value :  2.76514e-06
 Reference value :  2.76797e-06
 Reference value :  2.77219e-06
 Reference value :  2.78064e-06
 Reference value :  2.79682e-06
 Reference value :  2.82918e-06
 Reference value :  2.89389e-06
 Reference value :  3.00000e-06
 Reference value :  3.00001e-06
 Reference value :  3.00003e-06
 Reference value :  3.00007e-06
 Reference value :  3.00010e-06
 Reference value :  3.00010e-06
 Reference value :  3.00011e-06
 Reference value :  3.00013e-06
 Reference value :  3.00016e-06
 Reference value :  3.00023e-06
 Reference value :  3.00036e-06
 Reference value :  3.00054e-06
 Reference value :  3.00089e-06
 Reference value :  3.00139e-06
 Reference value :  3.00190e-06
 Reference value :  3.00243e-06
 Reference value :  3.00309e-06
 Reference value :  3.00375e-06
 Reference value :  3.00452e-06
 Reference value :  3.00515e-06
 Reference value :  3.00585e-06
 Reference value :  3.00654e-06
 Reference value :  3.00723e-06
 Reference value :  3.00797e-06
 Reference value :  3.00889e-06
 Reference value :  3.00988e-06
 Reference value :  3.01155e-06
 Reference value :  3.01316e-06
 Reference value :  3.01461e-06
 Reference value :  3.01613e-06
 Reference value :  3.01769e-06
 Reference value :  3.01890e-06
 Reference value :  3.02007e-06
 Reference value :  3.02152e-06
 Reference value :  3.02289e-06
 Reference value :  3.02421e-06
 Reference value :  3.02588e-06
 Reference value :  3.02811e-06
 Reference value :  3.03039e-06
 Reference value :  3.03449e-06
 Reference value :  3.04026e-06
 Reference value :  3.04960e-06
 Reference value :  3.06526e-06
 Reference value :  3.08320e-06
 Reference value :  3.10199e-06
 Reference value :  3.11485e-06
 Reference value :  3.12728e-06
 Reference value :  3.13787e-06
 Reference value :  3.14742e-06
 Reference value :  3.16653e-06
 Reference value :  3.18879e-06
 Reference value :  3.21871e-06
 Reference value :  3.25010e-06
 Reference value :  3.25011e-06
 Reference value :  3.25013e-06
 Reference value :  3.25017e-06
 Reference value :  3.25020e-06
 Reference value :  3.25020e-06
 Reference value :  3.25020e-06
 Reference value :  3.25021e-06
 Reference value :  3.25021e-06
 Reference value :  3.25022e-06
 Reference value :  3.25025e-06
 Reference value :  3.25029e-06
 Reference value :  3.25039e-06
 Reference value :  3.25057e-06
 Reference value :  3.25090e-06
 Reference value :  3.25139e-06
 Reference value :  3.25202e-06
 Reference value :  3.25260e-06
 Reference value :  3.25328e-06
 Reference value :  3.25412e-06
 Reference value :  3.25474e-06
 Reference value :  3.25544e-06
 Reference value :  3.25636e-06
 Reference value :  3.25721e-06
 Reference value :  3.25833e-06
 Reference value :  3.26034e-06
 Reference value :  3.26228e-06
 Reference value :  3.26551e-06
 Reference value :  3.26947e-06
 Reference value :  3.27738e-06
 Reference value :  3.29320e-06
 Reference value :  3.32485e-06
 Reference value :  3.38814e-06
 Reference value :  3.50000e-06
 Reference value :  3.50001e-06
 Reference value :  3.50003e-06
 Reference value :  3.50007e-06
 Reference value :  3.50010e-06
 Reference value :  3.50010e-06
 Reference value :  3.50011e-06
 Reference value :  3.50013e-06
 Reference value :  3.50016e-06
 Reference value :  3.50023e-06
 Reference value :  3.50037e-06
 Reference value :  3.50054e-06
 Reference value :  3.50090e-06
 Reference value :  3.50139e-06
 Reference value :  3.50191e-06
 Reference value :  3.50245e-06
 Reference value :  3.50312e-06
 Reference value :  3.50378e-06
 Reference value :  3.50452e-06
 Reference value :  3.50537e-06
 Reference value :  3.50619e-06
 Reference value :  3.50732e-06
 Reference value :  3.50872e-06
 Reference value :  3.50989e-06
 Reference value :  3.51113e-06
 Reference value :  3.51249e-06
 Reference value :  3.51405e-06
 Reference value :  3.51570e-06
 Reference value :  3.51745e-06
 Reference value :  3.52096e-06
 Reference value :  3.52682e-06
 Reference value :  3.53803e-06
 Reference value :  3.56044e-06
 Reference value :  3.60526e-06
 Reference value :  3.69491e-06
 Reference value :  3.75010e-06
 Reference value :  3.75011e-06
 Reference value :  3.75013e-06
 Reference value :  3.75017e-06
 Reference value :  3.75020e-06
 Reference value :  3.75020e-06
 Reference value :  3.75020e-06
 Reference value :  3.75021e-06
 Reference value :  3.75021e-06
 Reference value :  3.75022e-06
 Reference value :  3.75025e-06
 Reference value :  3.75029e-06
 Reference value :  3.75039e-06
 Reference value :  3.75058e-06
 Reference value :  3.75091e-06
 Reference value :  3.75140e-06
 Reference value :  3.75198e-06
 Reference value :  3.75258e-06
 Reference value :  3.75322e-06
 Reference value :  3.75406e-06
 Reference value :  3.75468e-06
 Reference value :  3.75539e-06
 Reference value :  3.75604e-06
 Reference value :  3.75676e-06
 Reference value :  3.75766e-06
 Reference value :  3.75865e-06
 Reference value :  3.76064e-06
 Reference value :  3.76273e-06
 Reference value :  3.76627e-06
 Reference value :  3.77062e-06
 Reference value :  3.77932e-06
 Reference value :  3.79672e-06
 Reference value :  3.83151e-06
 Reference value :  3.90110e-06
 Reference value :  4.00000e-06
 Reference value :  4.00001e-06
 Reference value :  4.00003e-06
 Reference value :  4.00007e-06
 Reference value :  4.00010e-06
 Reference value :  4.00010e-06
 Reference value :  4.00011e-06
 Reference value :  4.00013e-06
 Reference value :  4.00016e-06
 Reference value :  4.00023e-06
 Reference value :  4.00036e-06
 Reference value :  4.00054e-06
 Reference value :  4.00089e-06
 Reference value :  4.00139e-06
 Reference value :  4.00190e-06
 Reference value :  4.00243e-06
 Reference value :  4.00310e-06
 Reference value :  4.00375e-06
 Reference value :  4.00453e-06
 Reference value :  4.00519e-06
 Reference value :  4.00590e-06
 Reference value :  4.00678e-06
 Reference value :  4.00756e-06
 Reference value :  4.00837e-06
 Reference value :  4.00946e-06
 Reference value :  4.01059e-06
 Reference value :  4.01261e-06
 Reference value :  4.01506e-06
 Reference value :  4.01692e-06
 Reference value :  4.01897e-06
 Reference value :  4.02064e-06
 Reference value :  4.02242e-06
 Reference value :  4.02416e-06
 Reference value :  4.02628e-06
 Reference value :  4.02820e-06
 Reference value :  4.03108e-06
 Reference value :  4.03484e-06
 Reference value :  4.04121e-06
 Reference value :  4.05213e-06
 Reference value :  4.06306e-06
 Reference value :  4.07371e-06
 Reference value :  4.08179e-06
 Reference value :  4.08809e-06
 Reference value :  4.09496e-06
 Reference value :  4.10140e-06
 Reference value :  4.10846e-06
 Reference value :  4.11482e-06
 Reference value :  4.12245e-06
 Reference value :  4.13350e-06
 Reference value :  4.15108e-06
 Reference value :  4.17527e-06
 Reference value :  4.21670e-06
 Reference value :  4.25010e-06
 Reference value :  4.25011e-06
 Reference value :  4.25013e-06
 Reference value :  4.25017e-06
 Reference value :  4.25020e-06
 Reference value :  4.25020e-06
 Reference value :  4.25020e-06
 Reference value :  4.25021e-06
 Reference value :  4.25021e-06
 Reference value :  4.25022e-06
 Reference value :  4.25025e-06
 Reference value :  4.25029e-06
 Reference value :  4.25039e-06
 Reference value :  4.25057e-06
 Reference value :  4.25090e-06
 Reference value :  4.25139e-06
 Reference value :  4.25202e-06
 Reference value :  4.25260e-06
 Reference value :  4.25328e-06
 Reference value :  4.25412e-06
 Reference value :  4.25472e-06
 Reference value :  4.25540e-06
 Reference value :  4.25624e-06
 Reference value :  4.25721e-06
 Reference value :  4.25821e-06
 Reference value :  4.26019e-06
 Reference value :  4.26210e-06
 Reference value :  4.26524e-06
 Reference value :  4.26909e-06
 Reference value :  4.27678e-06
 Reference value :  4.29218e-06
 Reference value :  4.32297e-06
 Reference value :  4.38455e-06
 Reference value :  4.50000e-06
 Reference value :  4.50001e-06
 Reference value :  4.50003e-06
 Reference value :  4.50007e-06
 Reference value :  4.50010e-06
 Reference value :  4.50010e-06
 Reference value :  4.50011e-06
 Reference value :  4.50013e-06
 Reference value :  4.50016e-06
 Reference value :  4.50023e-06
 Reference value :  4.50037e-06
 Reference value :  4.50054e-06
 Reference value :  4.50090e-06
 Reference value :  4.50139e-06
 Reference value :  4.50191e-06
 Reference value :  4.50242e-06
 Reference value :  4.50304e-06
 Reference value :  4.50369e-06
 Reference value :  4.50456e-06
 Reference value :  4.50534e-06
 Reference value :  4.50628e-06
 Reference value :  4.50743e-06
 Reference value :  4.50870e-06
 Reference value :  4.50990e-06
 Reference value :  4.51112e-06
 Reference value :  4.51229e-06
 Reference value :  4.51360e-06
 Reference value :  4.51493e-06
 Reference value :  4.51644e-06
 Reference value :  4.51946e-06
 Reference value :  4.52550e-06
 Reference value :  4.53607e-06
 Reference value :  4.55720e-06
 Reference value :  4.59947e-06
 Reference value :  4.68400e-06
 Reference value :  4.75010e-06
 Reference value :  4.75011e-06
 Reference value :  4.75013e-06
 Reference value :  4.75017e-06
 Reference value :  4.75020e-06
 Reference value :  4.75020e-06
 Reference value :  4.75020e-06
 Reference value :  4.75021e-06
 Reference value :  4.75021e-06
 Reference value :  4.75022e-06
 Reference value :  4.75025e-06
 Reference value :  4.75029e-06
 Reference value :  4.75039e-06
 Reference value :  4.75058e-06
 Reference value :  4.75091e-06
 Reference value :  4.75140e-06
 Reference value :  4.75204e-06
 Reference value :  4.75261e-06
 Reference value :  4.75330e-06
 Reference value :  4.75415e-06
 Reference value :  4.75476e-06
 Reference value :  4.75545e-06
 Reference value :  4.75615e-06
 Reference value :  4.75689e-06
 Reference value :  4.75788e-06
 Reference value :  4.75894e-06
 Reference value :  4.76007e-06
 Reference value :  4.76153e-06
 Reference value :  4.76365e-06
 Reference value :  4.76566e-06
 Reference value :  4.76933e-06
 Reference value :  4.77391e-06
 Reference value :  4.78307e-06
 Reference value :  4.80140e-06
 Reference value :  4.83804e-06
 Reference value :  4.91134e-06
 Reference value :  5.00000e-06
 Reference value :  5.00001e-06
 Reference value :  5.00003e-06
 Reference value :  5.00007e-06
 Reference value :  5.00010e-06
 Reference value :  5.00010e-06
 Reference value :  5.00011e-06
 Reference value :  5.00013e-06
 Reference value :  5.00016e-06
 Reference value :  5.00023e-06
 Reference value :  5.00036e-06
 Reference value :  5.00054e-06
 Reference value :  5.00089e-06
 Reference value :  5.00138e-06
 Reference value :  5.00189e-06
 Reference value :  5.00243e-06
 Reference value :  5.00309e-06
 Reference value :  5.00374e-06
 Reference value :  5.00451e-06
 Reference value :  5.00514e-06
 Reference value :  5.00584e-06
 Reference value :  5.00652e-06
 Reference value :  5.00720e-06
 Reference value :  5.00792e-06
 Reference value :  5.00898e-06
 Reference value :  5.00994e-06
 Reference value :  5.01179e-06
 Reference value :  5.01294e-06
 Reference value :  5.01429e-06
 Reference value :  5.01560e-06
 Reference value :  5.01715e-06
 Reference value :  5.01864e-06
 Reference value :  5.02002e-06
 Reference value :  5.02153e-06
 Reference value :  5.02287e-06
 Reference value :  5.02427e-06
 Reference value :  5.02593e-06
 Reference value :  5.02807e-06
 Reference value :  5.03037e-06
 Reference value :  5.03427e-06
 Reference value :  5.03979e-06
 Reference value :  5.04605e-06
 Reference value :  5.05199e-06
 Reference value :  5.05880e-06
 Reference value :  5.06610e-06
 Reference value :  5.07127e-06
 Reference value :  5.07611e-06
 Reference value :  5.08089e-06
 Reference value :  5.08646e-06
 Reference value :  5.09523e-06
 Reference value :  5.10703e-06
 Reference value :  5.12453e-06
 Reference value :  5.15000e-06
 Reference value :  5.18721e-06
 Reference value :  5.24219e-06
 Reference value :  5.25010e-06
 Reference value :  5.25011e-06
 Reference value :  5.25013e-06
 Reference value :  5.25017e-06
 Reference value :  5.25020e-06
 Reference value :  5.25020e-06
 Reference value :  5.25020e-06
 Reference value :  5.25021e-06
 Reference value :  5.25021e-06
 Reference value :  5.25022e-06
 Reference value :  5.25025e-06
 Reference value :  5.25029e-06
 Reference value :  5.25039e-06
 Reference value :  5.25058e-06
 Reference value :  5.25091e-06
 Reference value :  5.25140e-06
 Reference value :  5.25203e-06
 Reference value :  5.25261e-06
 Reference value :  5.25330e-06
 Reference value :  5.25414e-06
 Reference value :  5.25475e-06
 Reference value :  5.25546e-06
 Reference value :  5.25636e-06
 Reference value :  5.25725e-06
 Reference value :  5.25833e-06
 Reference value :  5.26025e-06
 Reference value :  5.26221e-06
 Reference value :  5.26540e-06
 Reference value :  5.26936e-06
 Reference value :  5.27727e-06
 Reference value :  5.29309e-06
 Reference value :  5.32474e-06
 Reference value :  5.38803e-06
 Reference value :  5.50000e-06
 Reference value :  5.50001e-06
 Reference value :  5.50003e-06
 Reference value :  5.50007e-06
 Reference value :  5.50010e-06
 Reference value :  5.50010e-06
 Reference value :  5.50011e-06
 Reference value :  5.50013e-06
 Reference value :  5.50016e-06
 Reference value :  5.50023e-06
 Reference value :  5.50037e-06
 Reference value :  5.50054e-06
 Reference value :  5.50090e-06
 Reference value :  5.50139e-06
 Reference value :  5.50191e-06
 Reference value :  5.50245e-06
 Reference value :  5.50312e-06
 Reference value :  5.50378e-06
 Reference value :  5.50452e-06
 Reference value :  5.50540e-06
 Reference value :  5.50622e-06
 Reference value :  5.50751e-06
 Reference value :  5.50884e-06
 Reference value :  5.51008e-06
 Reference value :  5.51151e-06
 Reference value :  5.51284e-06
 Reference value :  5.51422e-06
 Reference value :  5.51576e-06
 Reference value :  5.51750e-06
 Reference value :  5.52058e-06
 Reference value :  5.52511e-06
 Reference value :  5.53370e-06
 Reference value :  5.54967e-06
 Reference value :  5.57936e-06
 Reference value :  5.63844e-06
 Reference value :  5.75010e-06
 Reference value :  5.75011e-06
 Reference value :  5.75013e-06
 Reference value :  5.75017e-06
 Reference value :  5.75020e-06
 Reference value :  5.75020e-06
 Reference value :  5.75020e-06
 Reference value :  5.75021e-06
 Reference value :  5.75021e-06
 Reference value :  5.75022e-06
 Reference value :  5.75025e-06
 Reference value :  5.75029e-06
 Reference value :  5.75039e-06
 Reference value :  5.75058e-06
 Reference value :  5.75091e-06
 Reference value :  5.75141e-06
 Reference value :  5.75204e-06
 Reference value :  5.75261e-06
 Reference value :  5.75330e-06
 Reference value :  5.75414e-06
 Reference value :  5.75474e-06
 Reference value :  5.75544e-06
 Reference value :  5.75612e-06
 Reference value :  5.75685e-06
 Reference value :  5.75779e-06
 Reference value :  5.75884e-06
 Reference value :  5.76093e-06
 Reference value :  5.76309e-06
 Reference value :  5.76685e-06
 Reference value :  5.77163e-06
 Reference value :  5.78118e-06
 Reference value :  5.80028e-06
 Reference value :  5.83848e-06
 Reference value :  5.91489e-06
 Reference value :  6.00000e-06
 Reference value :  6.00001e-06
 Reference value :  6.00003e-06
 Reference value :  6.00007e-06
 Reference value :  6.00010e-06
 Reference value :  6.00010e-06
 Reference value :  6.00011e-06
 Reference value :  6.00013e-06
 Reference value :  6.00016e-06
 Reference value :  6.00023e-06
 Reference value :  6.00036e-06
 Reference value :  6.00054e-06
 Reference value :  6.00089e-06
 Reference value :  6.00139e-06
 Reference value :  6.00190e-06
 Reference value :  6.00243e-06
 Reference value :  6.00310e-06
 Reference value :  6.00375e-06
 Reference value :  6.00453e-06
 Reference value :  6.00519e-06
 Reference value :  6.00590e-06
 Reference value :  6.00668e-06
 Reference value :  6.00744e-06
 Reference value :  6.00827e-06
 Reference value :  6.00942e-06
 Reference value :  6.01067e-06
 Reference value :  6.01277e-06
 Reference value :  6.01535e-06
 Reference value :  6.01727e-06
 Reference value :  6.01939e-06
 Reference value :  6.02101e-06
 Reference value :  6.02280e-06
 Reference value :  6.02456e-06
 Reference value :  6.02649e-06
 Reference value :  6.02863e-06
 Reference value :  6.03105e-06
 Reference value :  6.03466e-06
 Reference value :  6.03948e-06
 Reference value :  6.04548e-06
 Reference value :  6.05238e-06
 Reference value :  6.05716e-06
 Reference value :  6.06198e-06
 Reference value :  6.06765e-06
 Reference value :  6.07372e-06
 Reference value :  6.08101e-06
 Reference value :  6.08718e-06
 Reference value :  6.09460e-06
 Reference value :  6.10871e-06
 Reference value :  6.12324e-06
 Reference value :  6.14842e-06
 Reference value :  6.18721e-06
 Reference value :  6.22810e-06
 Reference value :  6.25010e-06
 Reference value :  6.25011e-06
 Reference value :  6.25013e-06
 Reference value :  6.25017e-06
 Reference value :  6.25020e-06
 Reference value :  6.25020e-06
 Reference value :  6.25020e-06
 Reference value :  6.25021e-06
 Reference value :  6.25021e-06
 Reference value :  6.25022e-06
 Reference value :  6.25025e-06
 Reference value :  6.25029e-06
 Reference value :  6.25039e-06
 Reference value :  6.25057e-06
 Reference value :  6.25090e-06
 Reference value :  6.25139e-06
 Reference value :  6.25202e-06
 Reference value :  6.25260e-06
 Reference value :  6.25328e-06
 Reference value :  6.25412e-06
 Reference value :  6.25472e-06
 Reference value :  6.25540e-06
 Reference value :  6.25625e-06
 Reference value :  6.25721e-06
 Reference value :  6.25821e-06
 Reference value :  6.26023e-06
 Reference value :  6.26212e-06
 Reference value :  6.26531e-06
 Reference value :  6.26915e-06
 Reference value :  6.27684e-06
 Reference value :  6.29223e-06
 Reference value :  6.32300e-06
 Reference value :  6.38454e-06
 Reference value :  6.50000e-06
 Reference value :  6.50001e-06
 Reference value :  6.50003e-06
 Reference value :  6.50007e-06
 Reference value :  6.50010e-06
 Reference value :  6.50010e-06
 Reference value :  6.50011e-06
 Reference value :  6.50013e-06
 Reference value :  6.50016e-06
 Reference value :  6.50023e-06
 Reference value :  6.50037e-06
 Reference value :  6.50054e-06
 Reference value :  6.50090e-06
 Reference value :  6.50140e-06
 Reference value :  6.50191e-06
 Reference value :  6.50242e-06
 Reference value :  6.50304e-06
 Reference value :  6.50370e-06
 Reference value :  6.50456e-06
 Reference value :  6.50535e-06
 Reference value :  6.50628e-06
 Reference value :  6.50743e-06
 Reference value :  6.50874e-06
 Reference value :  6.50988e-06
 Reference value :  6.51108e-06
 Reference value :  6.51220e-06
 Reference value :  6.51350e-06
 Reference value :  6.51482e-06
 Reference value :  6.51631e-06
 Reference value :  6.51928e-06
 Reference value :  6.52523e-06
 Reference value :  6.53560e-06
 Reference value :  6.55632e-06
 Reference value :  6.59778e-06
 Reference value :  6.68068e-06
 Reference value :  6.75010e-06
 Reference value :  6.75011e-06
 Reference value :  6.75013e-06
 Reference value :  6.75017e-06
 Reference value :  6.75020e-06
 Reference value :  6.75020e-06
 Reference value :  6.75020e-06
 Reference value :  6.75021e-06
 Reference value :  6.75021e-06
 Reference value :  6.75022e-06
 Reference value :  6.75025e-06
 Reference value :  6.75029e-06
 Reference value :  6.75039e-06
 Reference value :  6.75058e-06
 Reference value :  6.75091e-06
 Reference value :  6.75141e-06
 Reference value :  6.75204e-06
 Reference value :  6.75262e-06
 Reference value :  6.75330e-06
 Reference value :  6.75415e-06
 Reference value :  6.75476e-06
 Reference value :  6.75545e-06
 Reference value :  6.75615e-06
 Reference value :  6.75688e-06
 Reference value :  6.75786e-06
 Reference value :  6.75892e-06
 Reference value :  6.76012e-06
 Reference value :  6.76153e-06
 Reference value :  6.76371e-06
 Reference value :  6.76571e-06
 Reference value :  6.76945e-06
 Reference value :  6.77405e-06
 Reference value :  6.78324e-06
 Reference value :  6.80163e-06
 Reference value :  6.83842e-06
 Reference value :  6.91199e-06
 Reference value :  7.00000e-06
 Reference value :  7.00001e-06
 Reference value :  7.00003e-06
 Reference value :  7.00007e-06
 Reference value :  7.00010e-06
 Reference value :  7.00010e-06
 Reference value :  7.00011e-06
 Reference value :  7.00013e-06
 Reference value :  7.00016e-06
 Reference value :  7.00023e-06
 Reference value :  7.00036e-06
 Reference value :  7.00054e-06
 Reference value :  7.00089e-06
 Reference value :  7.00139e-06
 Reference value :  7.00190e-06
 Reference value :  7.00243e-06
 Reference value :  7.00309e-06
 Reference value :  7.00375e-06
 Reference value :  7.00452e-06
 Reference value :  7.00515e-06
 Reference value :  7.00584e-06
 Reference value :  7.00653e-06
 Reference value :  7.00722e-06
 Reference value :  7.00794e-06
 Reference value :  7.00900e-06
 Reference value :  7.01000e-06
 Reference value :  7.01151e-06
 Reference value :  7.01299e-06
 Reference value :  7.01436e-06
 Reference value :  7.01585e-06
 Reference value :  7.01745e-06
 Reference value :  7.01929e-06
 Reference value :  7.02051e-06
 Reference value :  7.02185e-06
 Reference value :  7.02307e-06
 Reference value :  7.02438e-06
 Reference value :  7.02587e-06
 Reference value :  7.02795e-06
 Reference value :  7.03010e-06
 Reference value :  7.03395e-06
 Reference value :  7.03794e-06
 Reference value :  7.04361e-06
 Reference value :  7.04994e-06
 Reference value :  7.06260e-06
 Reference value :  7.08225e-06
 Reference value :  7.11462e-06
 Reference value :  7.17935e-06
 Reference value :  7.25010e-06
 Reference value :  7.25011e-06
 Reference value :  7.25013e-06
 Reference value :  7.25017e-06
 Reference value :  7.25020e-06
 Reference value :  7.25020e-06
 Reference value :  7.25020e-06
 Reference value :  7.25021e-06
 Reference value :  7.25021e-06
 Reference value :  7.25022e-06
 Reference value :  7.25025e-06
 Reference value :  7.25029e-06
 Reference value :  7.25039e-06
 Reference value :  7.25058e-06
 Reference value :  7.25092e-06
 Reference value :  7.25141e-06
 Reference value :  7.25198e-06
 Reference value :  7.25258e-06
 Reference value :  7.25322e-06
 Reference value :  7.25406e-06
 Reference value :  7.25466e-06
 Reference value :  7.25536e-06
 Reference value :  7.25618e-06
 Reference value :  7.25703e-06
 Reference value :  7.25811e-06
 Reference value :  7.25993e-06
 Reference value :  7.26184e-06
 Reference value :  7.26472e-06
 Reference value :  7.26855e-06
 Reference value :  7.27621e-06
 Reference value :  7.29153e-06
 Reference value :  7.32108e-06
 Reference value :  7.38018e-06
 Reference value :  7.49837e-06
 Reference value :  7.50000e-06
 Reference value :  7.50001e-06
 Reference value :  7.50003e-06
 Reference value :  7.50007e-06
 Reference value :  7.50010e-06
 Reference value :  7.50010e-06
 Reference value :  7.50011e-06
 Reference value :  7.50013e-06
 Reference value :  7.50016e-06
 Reference value :  7.50023e-06
 Reference value :  7.50036e-06
 Reference value :  7.50054e-06
 Reference value :  7.50090e-06
 Reference value :  7.50141e-06
 Reference value :  7.50193e-06
 Reference value :  7.50246e-06
 Reference value :  7.50308e-06
 Reference value :  7.50376e-06
 Reference value :  7.50456e-06
 Reference value :  7.50541e-06
 Reference value :  7.50631e-06
 Reference value :  7.50757e-06
 Reference value :  7.50906e-06
 Reference value :  7.51041e-06
 Reference value :  7.51180e-06
 Reference value :  7.51308e-06
 Reference value :  7.51447e-06
 Reference value :  7.51596e-06
 Reference value :  7.51767e-06
 Reference value :  7.52081e-06
 Reference value :  7.52534e-06
 Reference value :  7.53429e-06
 Reference value :  7.55096e-06
 Reference value :  7.58239e-06
 Reference value :  7.64525e-06
 Reference value :  7.75010e-06
 Reference value :  7.75011e-06
 Reference value :  7.75013e-06
 Reference value :  7.75017e-06
 Reference value :  7.75020e-06
 Reference value :  7.75020e-06
 Reference value :  7.75020e-06
 Reference value :  7.75021e-06
 Reference value :  7.75021e-06
 Reference value :  7.75022e-06
 Reference value :  7.75025e-06
 Reference value :  7.75029e-06
 Reference value :  7.75039e-06
 Reference value :  7.75058e-06
 Reference value :  7.75092e-06
 Reference value :  7.75141e-06
 Reference value :  7.75198e-06
 Reference value :  7.75258e-06
 Reference value :  7.75322e-06
 Reference value :  7.75406e-06
 Reference value :  7.75467e-06
 Reference value :  7.75537e-06
 Reference value :  7.75603e-06
 Reference value :  7.75675e-06
 Reference value :  7.75766e-06
 Reference value :  7.75867e-06
 Reference value :  7.75970e-06
 Reference value :  7.76119e-06
 Reference value :  7.76287e-06
 Reference value :  7.76517e-06
 Reference value :  7.76804e-06
 Reference value :  7.77231e-06
 Reference value :  7.78086e-06
 Reference value :  7.79794e-06
 Reference value :  7.83212e-06
 Reference value :  7.90047e-06
 Reference value :  8.00000e-06
 Reference value :  8.00001e-06
 Reference value :  8.00003e-06
 Reference value :  8.00007e-06
 Reference value :  8.00010e-06
 Reference value :  8.00010e-06
 Reference value :  8.00011e-06
 Reference value :  8.00013e-06
 Reference value :  8.00016e-06
 Reference value :  8.00023e-06
 Reference value :  8.00036e-06
 Reference value :  8.00054e-06
 Reference value :  8.00090e-06
 Reference value :  8.00141e-06
 Reference value :  8.00193e-06
 Reference value :  8.00248e-06
 Reference value :  8.00314e-06
 Reference value :  8.00383e-06
 Reference value :  8.00461e-06
 Reference value :  8.00525e-06
 Reference value :  8.00594e-06
 Reference value :  8.00661e-06
 Reference value :  8.00738e-06
 Reference value :  8.00810e-06
 Reference value :  8.00920e-06
 Reference value :  8.01025e-06
 Reference value :  8.01192e-06
 Reference value :  8.01319e-06
 Reference value :  8.01454e-06
 Reference value :  8.01594e-06
 Reference value :  8.01750e-06
 Reference value :  8.01915e-06
 Reference value :  8.02133e-06
 Reference value :  8.02288e-06
 Reference value :  8.02483e-06
 Reference value :  8.02685e-06
 Reference value :  8.03089e-06
 Reference value :  8.03608e-06
 Reference value :  8.04644e-06
 Reference value :  8.05940e-06
 Reference value :  8.08208e-06
 Reference value :  8.10682e-06
 Reference value :  8.14182e-06
 Reference value :  8.17029e-06
 Reference value :  8.18751e-06
 Reference value :  8.20689e-06
 Reference value :  8.23219e-06
 Reference value :  8.25010e-06
 Reference value :  8.25011e-06
 Reference value :  8.25013e-06
 Reference value :  8.25017e-06
 Reference value :  8.25020e-06
 Reference value :  8.25020e-06
 Reference value :  8.25020e-06
 Reference value :  8.25021e-06
 Reference value :  8.25021e-06
 Reference value :  8.25022e-06
 Reference value :  8.25025e-06
 Reference value :  8.25029e-06
 Reference value :  8.25039e-06
 Reference value :  8.25058e-06
 Reference value :  8.25096e-06
 Reference value :  8.25143e-06
 Reference value :  8.25198e-06
 Reference value :  8.25258e-06
 Reference value :  8.25322e-06
 Reference value :  8.25404e-06
 Reference value :  8.25495e-06
 Reference value :  8.25612e-06
 Reference value :  8.25752e-06
 Reference value :  8.25885e-06
 Reference value :  8.26110e-06
 Reference value :  8.26351e-06
 Reference value :  8.26729e-06
 Reference value :  8.27291e-06
 Reference value :  8.28415e-06
 Reference value :  8.30664e-06
 Reference value :  8.35162e-06
 Reference value :  8.44158e-06
 Reference value :  8.50000e-06
 Reference value :  8.50000e-06
 Reference value :  8.50000e-06
 Reference value :  8.50000e-06
 Reference value :  8.50000e-06
 Reference value :  8.50000e-06
 Reference value :  8.50000e-06
 Reference value :  8.50000e-06
 Reference value :  8.50000e-06
 Reference value :  8.50000e-06
 Reference value :  8.50001e-06
 Reference value :  8.50001e-06
 Reference value :  8.50002e-06
 Reference value :  8.50004e-06
 Reference value :  8.50008e-06
 Reference value :  8.50010e-06
 Reference value :  8.50010e-06
 Reference value :  8.50011e-06
 Reference value :  8.50012e-06
 Reference value :  8.50014e-06
 Reference value :  8.50018e-06
 Reference value :  8.50026e-06
 Reference value :  8.50043e-06
 Reference value :  8.50072e-06
 Reference value :  8.50121e-06
 Reference value :  8.50181e-06
 Reference value :  8.50247e-06
 Reference value :  8.50311e-06
 Reference value :  8.50379e-06
 Reference value :  8.50448e-06
 Reference value :  8.50521e-06
 Reference value :  8.50619e-06
 Reference value :  8.50721e-06
 Reference value :  8.50925e-06
 Reference value :  8.51054e-06
 Reference value :  8.51189e-06
 Reference value :  8.51348e-06
 Reference value :  8.51523e-06
 Reference value :  8.51762e-06
 Reference value :  8.52125e-06
 Reference value :  8.52564e-06
 Reference value :  8.53051e-06
 Reference value :  8.53388e-06
 Reference value :  8.53678e-06
 Reference value :  8.53987e-06
 Reference value :  8.54238e-06
 Reference value :  8.54497e-06
 Reference value :  8.54752e-06
 Reference value :  8.55008e-06
 Reference value :  8.55365e-06
 Reference value :  8.55824e-06
 Reference value :  8.56160e-06
 Reference value :  8.56523e-06
 Reference value :  8.56899e-06
 Reference value :  8.57309e-06
 Reference value :  8.57935e-06
 Reference value :  8.58723e-06
 Reference value :  8.59439e-06
 Reference value :  8.60176e-06
 Reference value :  8.60848e-06
 Reference value :  8.61265e-06
 Reference value :  8.61810e-06
 Reference value :  8.62901e-06
 Reference value :  8.64543e-06
 Reference value :  8.67095e-06
 Reference value :  8.69586e-06
 Reference value :  8.73254e-06
 Reference value :  8.75010e-06
 Reference value :  8.75011e-06
 Reference value :  8.75013e-06
 Reference value :  8.75017e-06
 Reference value :  8.75020e-06
 Reference value :  8.75020e-06
 Reference value :  8.75020e-06
 Reference value :  8.75021e-06
 Reference value :  8.75021e-06
 Reference value :  8.75022e-06
 Reference value :  8.75025e-06
 Reference value :  8.75029e-06
 Reference value :  8.75039e-06
 Reference value :  8.75057e-06
 Reference value :  8.75094e-06
 Reference value :  8.75142e-06
 Reference value :  8.75198e-06
 Reference value :  8.75258e-06
 Reference value :  8.75323e-06
 Reference value :  8.75405e-06
 Reference value :  8.75466e-06
 Reference value :  8.75536e-06
 Reference value :  8.75620e-06
 Reference value :  8.75705e-06
 Reference value :  8.75808e-06
 Reference value :  8.76004e-06
 Reference value :  8.76188e-06
 Reference value :  8.76489e-06
 Reference value :  8.76865e-06
 Reference value :  8.77617e-06
 Reference value :  8.79121e-06
 Reference value :  8.81983e-06
 Reference value :  8.87705e-06
 Reference value :  8.99113e-06
 Reference value :  9.00000e-06
 Reference value :  9.00001e-06
 Reference value :  9.00003e-06
 Reference value :  9.00007e-06
 Reference value :  9.00010e-06
 Reference value :  9.00010e-06
 Reference value :  9.00011e-06
 Reference value :  9.00013e-06
 Reference value :  9.00016e-06
 Reference value :  9.00023e-06
 Reference value :  9.00036e-06
 Reference value :  9.00055e-06
 Reference value :  9.00092e-06
 Reference value :  9.00145e-06
 Reference value :  9.00199e-06
 Reference value :  9.00254e-06
 Reference value :  9.00316e-06
 Reference value :  9.00393e-06
 Reference value :  9.00468e-06
 Reference value :  9.00549e-06
 Reference value :  9.00650e-06
 Reference value :  9.00753e-06
 Reference value :  9.00927e-06
 Reference value :  9.01140e-06
 Reference value :  9.01313e-06
 Reference value :  9.01495e-06
 Reference value :  9.01657e-06
 Reference value :  9.01836e-06
 Reference value :  9.02114e-06
 Reference value :  9.02364e-06
 Reference value :  9.02854e-06
 Reference value :  9.03485e-06
 Reference value :  9.04708e-06
 Reference value :  9.06661e-06
 Reference value :  9.10010e-06
 Reference value :  9.15909e-06
 Reference value :  9.25010e-06
 Reference value :  9.25011e-06
 Reference value :  9.25013e-06
 Reference value :  9.25017e-06
 Reference value :  9.25020e-06
 Reference value :  9.25020e-06
 Reference value :  9.25020e-06
 Reference value :  9.25021e-06
 Reference value :  9.25021e-06
 Reference value :  9.25022e-06
 Reference value :  9.25025e-06
 Reference value :  9.25029e-06
 Reference value :  9.25039e-06
 Reference value :  9.25057e-06
 Reference value :  9.25094e-06
 Reference value :  9.25142e-06
 Reference value :  9.25198e-06
 Reference value :  9.25259e-06
 Reference value :  9.25324e-06
 Reference value :  9.25411e-06
 Reference value :  9.25473e-06
 Reference value :  9.25545e-06
 Reference value :  9.25613e-06
 Reference value :  9.25686e-06
 Reference value :  9.25779e-06
 Reference value :  9.25868e-06
 Reference value :  9.25961e-06
 Reference value :  9.26087e-06
 Reference value :  9.26220e-06
 Reference value :  9.26440e-06
 Reference value :  9.26674e-06
 Reference value :  9.27052e-06
 Reference value :  9.27599e-06
 Reference value :  9.28378e-06
 Reference value :  9.29594e-06
 Reference value :  9.31346e-06
 Reference value :  9.34252e-06
 Reference value :  9.39631e-06
 Reference value :  9.47933e-06
 Reference value :  9.50000e-06
 Reference value :  9.50001e-06
 Reference value :  9.50003e-06
 Reference value :  9.50007e-06
 Reference value :  9.50010e-06
 Reference value :  9.50010e-06
 Reference value :  9.50011e-06
 Reference value :  9.50013e-06
 Reference value :  9.50016e-06
 Reference value :  9.50023e-06
 Reference value :  9.50037e-06
 Reference value :  9.50055e-06
 Reference value :  9.50093e-06
 Reference value :  9.50151e-06
 Reference value :  9.50204e-06
 Reference value :  9.50261e-06
 Reference value :  9.50329e-06
 Reference value :  9.50407e-06
 Reference value :  9.50484e-06
 Reference value :  9.50553e-06
 Reference value :  9.50625e-06
 Reference value :  9.50696e-06
 Reference value :  9.50774e-06
 Reference value :  9.50853e-06
 Reference value :  9.50963e-06
 Reference value :  9.51103e-06
 Reference value :  9.51321e-06
 Reference value :  9.51469e-06
 Reference value :  9.51633e-06
 Reference value :  9.51798e-06
 Reference value :  9.51942e-06
 Reference value :  9.52056e-06
 Reference value :  9.52178e-06
 Reference value :  9.52316e-06
 Reference value :  9.52486e-06
 Reference value :  9.52641e-06
 Reference value :  9.52913e-06
 Reference value :  9.53191e-06
 Reference value :  9.53747e-06
 Reference value :  9.54714e-06
 Reference value :  9.56239e-06
 Reference value :  9.59025e-06
 Reference value :  9.64034e-06
 Reference value :  9.70632e-06
 Reference value :  9.75010e-06
 Reference value :  9.75011e-06
 Reference value :  9.75013e-06
 Reference value :  9.75017e-06
 Reference value :  9.75020e-06
 Reference value :  9.75020e-06
 Reference value :  9.75020e-06
 Reference value :  9.75021e-06
 Reference value :  9.75021e-06
 Reference value :  9.75022e-06
 Reference value :  9.75025e-06
 Reference value :  9.75029e-06
 Reference value :  9.75039e-06
 Reference value :  9.75057e-06
 Reference value :  9.75090e-06
 Reference value :  9.75140e-06
 Reference value :  9.75203e-06
 Reference value :  9.75261e-06
 Reference value :  9.75328e-06
 Reference value :  9.75411e-06
 Reference value :  9.75470e-06
 Reference value :  9.75540e-06
 Reference value :  9.75628e-06
 Reference value :  9.75712e-06
 Reference value :  9.75824e-06
 Reference value :  9.76019e-06
 Reference value :  9.76209e-06
 Reference value :  9.76521e-06
 Reference value :  9.76907e-06
 Reference value :  9.77681e-06
 Reference value :  9.79229e-06
 Reference value :  9.82324e-06
 Reference value :  9.88514e-06
 Reference value :  9.97666e-06
 Reference value :  1.00000e-05
 Reference value :  1.00000e-05
 Reference value :  1.00000e-05
 Reference value :  1.00001e-05
 Reference value :  1.00001e-05
 Reference value :  1.00001e-05
 Reference value :  1.00001e-05
 Reference value :  1.00001e-05
 Reference value :  1.00002e-05
 Reference value :  1.00002e-05
 Reference value :  1.00004e-05
 Reference value :  1.00005e-05
 Reference value :  1.00009e-05
 Reference value :  1.00014e-05
 Reference value :  1.00019e-05
 Reference value :  1.00024e-05
 Reference value :  1.00030e-05
 Reference value :  1.00037e-05
 Reference value :  1.00045e-05
 Reference value :  1.00053e-05
 Reference value :  1.00063e-05
 Reference value :  1.00076e-05
 Reference value :  1.00091e-05
 Reference value :  1.00105e-05
 Reference value :  1.00119e-05
 Reference value :  1.00132e-05
 Reference value :  1.00146e-05
 Reference value :  1.00160e-05
 Reference value :  1.00177e-05
 Reference value :  1.00209e-05
 Reference value :  1.00261e-05
 Reference value :  1.00364e-05
 Reference value :  1.00571e-05
 Reference value :  1.00984e-05
 Reference value :  1.01810e-05
 Reference value :  1.02501e-05
 Reference value :  1.02501e-05
 Reference value :  1.02501e-05
 Reference value :  1.02502e-05
 Reference value :  1.02502e-05
 Reference value :  1.02502e-05
 Reference value :  1.02502e-05
 Reference value :  1.02502e-05
 Reference value :  1.02502e-05
 Reference value :  1.02502e-05
 Reference value :  1.02502e-05
 Reference value :  1.02503e-05
 Reference value :  1.02504e-05
 Reference value :  1.02506e-05
 Reference value :  1.02509e-05
 Reference value :  1.02514e-05
 Reference value :  1.02520e-05
 Reference value :  1.02526e-05
 Reference value :  1.02532e-05
 Reference value :  1.02541e-05
 Reference value :  1.02547e-05
 Reference value :  1.02554e-05
 Reference value :  1.02561e-05
 Reference value :  1.02568e-05
 Reference value :  1.02577e-05
 Reference value :  1.02587e-05
 Reference value :  1.02597e-05
 Reference value :  1.02612e-05
 Reference value :  1.02628e-05
 Reference value :  1.02651e-05
 Reference value :  1.02679e-05
 Reference value :  1.02721e-05
 Reference value :  1.02805e-05
 Reference value :  1.02968e-05
 Reference value :  1.03292e-05
 Reference value :  1.03940e-05
 Reference value :  1.05000e-05
 Reference value :  1.05000e-05
 Reference value :  1.05000e-05
 Reference value :  1.05001e-05
 Reference value :  1.05001e-05
 Reference value :  1.05001e-05
 Reference value :  1.05001e-05
 Reference value :  1.05001e-05
 Reference value :  1.05002e-05
 Reference value :  1.05002e-05
 Reference value :  1.05004e-05
 Reference value :  1.05005e-05
 Reference value :  1.05009e-05
 Reference value :  1.05014e-05
 Reference value :  1.05019e-05
 Reference value :  1.05024e-05
 Reference value :  1.05031e-05
 Reference value :  1.05038e-05
 Reference value :  1.05045e-05
 Reference value :  1.05052e-05
 Reference value :  1.05058e-05
 Reference value :  1.05065e-05
 Reference value :  1.05072e-05
 Reference value :  1.05080e-05
 Reference value :  1.05089e-05
 Reference value :  1.05099e-05
 Reference value :  1.05115e-05
 Reference value :  1.05138e-05
 Reference value :  1.05153e-05
 Reference value :  1.05171e-05
 Reference value :  1.05187e-05
 Reference value :  1.05199e-05
 Reference value :  1.05211e-05
 Reference value :  1.05222e-05
 Reference value :  1.05235e-05
 Reference value :  1.05250e-05
 Reference value :  1.05264e-05
 Reference value :  1.05290e-05
 Reference value :  1.05320e-05
 Reference value :  1.05380e-05
 Reference value :  1.05480e-05
 Reference value :  1.05608e-05
 Reference value :  1.05850e-05
 Reference value :  1.06245e-05
 Reference value :  1.06785e-05
 Reference value :  1.07501e-05
 Reference value :  1.07501e-05
 Reference value :  1.07501e-05
 Reference value :  1.07502e-05
 Reference value :  1.07502e-05
 Reference value :  1.07502e-05
 Reference value :  1.07502e-05
 Reference value :  1.07502e-05
 Reference value :  1.07502e-05
 Reference value :  1.07502e-05
 Reference value :  1.07502e-05
 Reference value :  1.07503e-05
 Reference value :  1.07504e-05
 Reference value :  1.07506e-05
 Reference value :  1.07509e-05
 Reference value :  1.07514e-05
 Reference value :  1.07520e-05
 Reference value :  1.07526e-05
 Reference value :  1.07532e-05
 Reference value :  1.07541e-05
 Reference value :  1.07547e-05
 Reference value :  1.07554e-05
 Reference value :  1.07562e-05
 Reference value :  1.07570e-05
 Reference value :  1.07581e-05
 Reference value :  1.07598e-05
 Reference value :  1.07617e-05
 Reference value :  1.07645e-05
 Reference value :  1.07684e-05
 Reference value :  1.07761e-05
 Reference value :  1.07916e-05
 Reference value :  1.08218e-05
 Reference value :  1.08750e-05
 Reference value :  1.09317e-05
 Reference value :  1.09955e-05
 Reference value :  1.10000e-05
 Reference value :  1.10000e-05
 Reference value :  1.10000e-05
 Reference value :  1.10001e-05
 Reference value :  1.10001e-05
 Reference value :  1.10001e-05
 Reference value :  1.10001e-05
 Reference value :  1.10001e-05
 Reference value :  1.10002e-05
 Reference value :  1.10002e-05
 Reference value :  1.10004e-05
 Reference value :  1.10005e-05
 Reference value :  1.10009e-05
 Reference value :  1.10014e-05
 Reference value :  1.10019e-05
 Reference value :  1.10024e-05
 Reference value :  1.10030e-05
 Reference value :  1.10037e-05
 Reference value :  1.10046e-05
 Reference value :  1.10054e-05
 Reference value :  1.10063e-05
 Reference value :  1.10076e-05
 Reference value :  1.10091e-05
 Reference value :  1.10104e-05
 Reference value :  1.10119e-05
 Reference value :  1.10132e-05
 Reference value :  1.10146e-05
 Reference value :  1.10160e-05
 Reference value :  1.10176e-05
 Reference value :  1.10209e-05
 Reference value :  1.10258e-05
 Reference value :  1.10358e-05
 Reference value :  1.10556e-05
 Reference value :  1.10952e-05
 Reference value :  1.11745e-05
 Reference value :  1.12501e-05
 Reference value :  1.12501e-05
 Reference value :  1.12501e-05
 Reference value :  1.12502e-05
 Reference value :  1.12502e-05
 Reference value :  1.12502e-05
 Reference value :  1.12502e-05
 Reference value :  1.12502e-05
 Reference value :  1.12502e-05
 Reference value :  1.12502e-05
 Reference value :  1.12502e-05
 Reference value :  1.12503e-05
 Reference value :  1.12504e-05
 Reference value :  1.12506e-05
 Reference value :  1.12509e-05
 Reference value :  1.12514e-05
 Reference value :  1.12520e-05
 Reference value :  1.12526e-05
 Reference value :  1.12532e-05
 Reference value :  1.12541e-05
 Reference value :  1.12547e-05
 Reference value :  1.12554e-05
 Reference value :  1.12561e-05
 Reference value :  1.12568e-05
 Reference value :  1.12577e-05
 Reference value :  1.12587e-05
 Reference value :  1.12597e-05
 Reference value :  1.12612e-05
 Reference value :  1.12629e-05
 Reference value :  1.12651e-05
 Reference value :  1.12680e-05
 Reference value :  1.12722e-05
 Reference value :  1.12806e-05
 Reference value :  1.12968e-05
 Reference value :  1.13292e-05
 Reference value :  1.13939e-05
 Reference value :  1.15000e-05
 Reference value :  1.15000e-05
 Reference value :  1.15000e-05
 Reference value :  1.15001e-05
 Reference value :  1.15001e-05
 Reference value :  1.15001e-05
 Reference value :  1.15001e-05
 Reference value :  1.15001e-05
 Reference value :  1.15002e-05
 Reference value :  1.15002e-05
 Reference value :  1.15004e-05
 Reference value :  1.15005e-05
 Reference value :  1.15009e-05
 Reference value :  1.15014e-05
 Reference value :  1.15019e-05
 Reference value :  1.15024e-05
 Reference value :  1.15031e-05
 Reference value :  1.15037e-05
 Reference value :  1.15045e-05
 Reference value :  1.15051e-05
 Reference value :  1.15058e-05
 Reference value :  1.15065e-05
 Reference value :  1.15072e-05
 Reference value :  1.15080e-05
 Reference value :  1.15089e-05
 Reference value :  1.15099e-05
 Reference value :  1.15116e-05
 Reference value :  1.15132e-05
 Reference value :  1.15146e-05
 Reference value :  1.15161e-05
 Reference value :  1.15177e-05
 Reference value :  1.15189e-05
 Reference value :  1.15201e-05
 Reference value :  1.15216e-05
 Reference value :  1.15229e-05
 Reference value :  1.15243e-05
 Reference value :  1.15259e-05
 Reference value :  1.15281e-05
 Reference value :  1.15304e-05
 Reference value :  1.15344e-05
 Reference value :  1.15401e-05
 Reference value :  1.15491e-05
 Reference value :  1.15639e-05
 Reference value :  1.15812e-05
 Reference value :  1.15994e-05
 Reference value :  1.16120e-05
 Reference value :  1.16228e-05
 Reference value :  1.16297e-05
 Reference value :  1.16371e-05
 Reference value :  1.16513e-05
 Reference value :  1.16656e-05
 Reference value :  1.16883e-05
 Reference value :  1.17147e-05
 Reference value :  1.17501e-05
 Reference value :  1.17501e-05
 Reference value :  1.17501e-05
 Reference value :  1.17502e-05
 Reference value :  1.17502e-05
 Reference value :  1.17502e-05
 Reference value :  1.17502e-05
 Reference value :  1.17502e-05
 Reference value :  1.17502e-05
 Reference value :  1.17502e-05
 Reference value :  1.17502e-05
 Reference value :  1.17503e-05
 Reference value :  1.17504e-05
 Reference value :  1.17506e-05
 Reference value :  1.17509e-05
 Reference value :  1.17514e-05
 Reference value :  1.17520e-05
 Reference value :  1.17526e-05
 Reference value :  1.17532e-05
 Reference value :  1.17541e-05
 Reference value :  1.17547e-05
 Reference value :  1.17554e-05
 Reference value :  1.17562e-05
 Reference value :  1.17570e-05
 Reference value :  1.17581e-05
 Reference value :  1.17598e-05
 Reference value :  1.17617e-05
 Reference value :  1.17645e-05
 Reference value :  1.17684e-05
 Reference value :  1.17762e-05
 Reference value :  1.17918e-05
 Reference value :  1.18221e-05
 Reference value :  1.18826e-05
 Reference value :  1.20000e-05
 Reference value :  1.20000e-05
 Reference value :  1.20000e-05
 Reference value :  1.20001e-05
 Reference value :  1.20001e-05
 Reference value :  1.20001e-05
 Reference value :  1.20001e-05
 Reference value :  1.20001e-05
 Reference value :  1.20002e-05
 Reference value :  1.20002e-05
 Reference value :  1.20004e-05
 Reference value :  1.20005e-05
 Reference value :  1.20009e-05
 Reference value :  1.20014e-05
 Reference value :  1.20019e-05
 Reference value :  1.20025e-05
 Reference value :  1.20031e-05
 Reference value :  1.20038e-05
 Reference value :  1.20045e-05
 Reference value :  1.20054e-05
 Reference value :  1.20062e-05
 Reference value :  1.20073e-05
 Reference value :  1.20087e-05
 Reference value :  1.20099e-05
 Reference value :  1.20111e-05
 Reference value :  1.20125e-05
 Reference value :  1.20141e-05
 Reference value :  1.20157e-05
 Reference value :  1.20176e-05
 Reference value :  1.20213e-05
 Reference value :  1.20264e-05
 Reference value :  1.20368e-05
 Reference value :  1.20573e-05
 Reference value :  1.20950e-05
 Reference value :  1.21704e-05
 Reference value :  1.22501e-05
 Reference value :  1.22501e-05
 Reference value :  1.22501e-05
 Reference value :  1.22502e-05
 Reference value :  1.22502e-05
 Reference value :  1.22502e-05
 Reference value :  1.22502e-05
 Reference value :  1.22502e-05
 Reference value :  1.22502e-05
 Reference value :  1.22502e-05
 Reference value :  1.22502e-05
 Reference value :  1.22503e-05
 Reference value :  1.22504e-05
 Reference value :  1.22506e-05
 Reference value :  1.22509e-05
 Reference value :  1.22514e-05
 Reference value :  1.22520e-05
 Reference value :  1.22526e-05
 Reference value :  1.22532e-05
 Reference value :  1.22541e-05
 Reference value :  1.22547e-05
 Reference value :  1.22554e-05
 Reference value :  1.22560e-05
 Reference value :  1.22568e-05
 Reference value :  1.22577e-05
 Reference value :  1.22587e-05
 Reference value :  1.22607e-05
 Reference value :  1.22627e-05
 Reference value :  1.22663e-05
 Reference value :  1.22707e-05
 Reference value :  1.22794e-05
 Reference value :  1.22968e-05
 Reference value :  1.23316e-05
 Reference value :  1.24013e-05
 Reference value :  1.25000e-05
 Reference value :  1.25000e-05
 Reference value :  1.25000e-05
 Reference value :  1.25001e-05
 Reference value :  1.25001e-05
 Reference value :  1.25001e-05
 Reference value :  1.25001e-05
 Reference value :  1.25001e-05
 Reference value :  1.25002e-05
 Reference value :  1.25002e-05
 Reference value :  1.25004e-05
 Reference value :  1.25005e-05
 Reference value :  1.25009e-05
 Reference value :  1.25014e-05
 Reference value :  1.25019e-05
 Reference value :  1.25024e-05
 Reference value :  1.25031e-05
 Reference value :  1.25038e-05
 Reference value :  1.25045e-05
 Reference value :  1.25052e-05
 Reference value :  1.25059e-05
 Reference value :  1.25068e-05
 Reference value :  1.25076e-05
 Reference value :  1.25084e-05
 Reference value :  1.25095e-05
 Reference value :  1.25106e-05
 Reference value :  1.25126e-05
 Reference value :  1.25151e-05
 Reference value :  1.25169e-05
 Reference value :  1.25190e-05
 Reference value :  1.25206e-05
 Reference value :  1.25224e-05
 Reference value :  1.25242e-05
 Reference value :  1.25263e-05
 Reference value :  1.25282e-05
 Reference value :  1.25311e-05
 Reference value :  1.25349e-05
 Reference value :  1.25413e-05
 Reference value :  1.25522e-05
 Reference value :  1.25635e-05
 Reference value :  1.25743e-05
 Reference value :  1.25818e-05
 Reference value :  1.25877e-05
 Reference value :  1.25943e-05
 Reference value :  1.26008e-05
 Reference value :  1.26079e-05
 Reference value :  1.26141e-05
 Reference value :  1.26218e-05
 Reference value :  1.26319e-05
 Reference value :  1.26494e-05
 Reference value :  1.26721e-05
 Reference value :  1.27110e-05
 Reference value :  1.27501e-05
 Reference value :  1.27501e-05
 Reference value :  1.27501e-05
 Reference value :  1.27502e-05
 Reference value :  1.27502e-05
 Reference value :  1.27502e-05
 Reference value :  1.27502e-05
 Reference value :  1.27502e-05
 Reference value :  1.27502e-05
 Reference value :  1.27502e-05
 Reference value :  1.27502e-05
 Reference value :  1.27503e-05
 Reference value :  1.27504e-05
 Reference value :  1.27506e-05
 Reference value :  1.27509e-05
 Reference value :  1.27514e-05
 Reference value :  1.27520e-05
 Reference value :  1.27526e-05
 Reference value :  1.27533e-05
 Reference value :  1.27541e-05
 Reference value :  1.27547e-05
 Reference value :  1.27554e-05
 Reference value :  1.27562e-05
 Reference value :  1.27572e-05
 Reference value :  1.27582e-05
 Reference value :  1.27602e-05
 Reference value :  1.27621e-05
 Reference value :  1.27652e-05
 Reference value :  1.27691e-05
 Reference value :  1.27768e-05
 Reference value :  1.27922e-05
 Reference value :  1.28230e-05
 Reference value :  1.28846e-05
 Reference value :  1.30000e-05
 Reference value :  1.30000e-05
 Reference value :  1.30000e-05
 Reference value :  1.30001e-05
 Reference value :  1.30001e-05
 Reference value :  1.30001e-05
 Reference value :  1.30001e-05
 Reference value :  1.30001e-05
 Reference value :  1.30002e-05
 Reference value :  1.30002e-05
 Reference value :  1.30004e-05
 Reference value :  1.30005e-05
 Reference value :  1.30009e-05
 Reference value :  1.30014e-05
 Reference value :  1.30019e-05
 Reference value :  1.30024e-05
 Reference value :  1.30030e-05
 Reference value :  1.30037e-05
 Reference value :  1.30046e-05
 Reference value :  1.30053e-05
 Reference value :  1.30063e-05
 Reference value :  1.30074e-05
 Reference value :  1.30087e-05
 Reference value :  1.30099e-05
 Reference value :  1.30111e-05
 Reference value :  1.30123e-05
 Reference value :  1.30136e-05
 Reference value :  1.30149e-05
 Reference value :  1.30164e-05
 Reference value :  1.30195e-05
 Reference value :  1.30255e-05
 Reference value :  1.30361e-05
 Reference value :  1.30572e-05
 Reference value :  1.30995e-05
 Reference value :  1.31841e-05
 Reference value :  1.32501e-05
 Reference value :  1.32501e-05
 Reference value :  1.32501e-05
 Reference value :  1.32502e-05
 Reference value :  1.32502e-05
 Reference value :  1.32502e-05
 Reference value :  1.32502e-05
 Reference value :  1.32502e-05
 Reference value :  1.32502e-05
 Reference value :  1.32502e-05
 Reference value :  1.32502e-05
 Reference value :  1.32503e-05
 Reference value :  1.32504e-05
 Reference value :  1.32506e-05
 Reference value :  1.32509e-05
 Reference value :  1.32514e-05
 Reference value :  1.32520e-05
 Reference value :  1.32526e-05
 Reference value :  1.32533e-05
 Reference value :  1.32541e-05
 Reference value :  1.32548e-05
 Reference value :  1.32555e-05
 Reference value :  1.32562e-05
 Reference value :  1.32569e-05
 Reference value :  1.32579e-05
 Reference value :  1.32589e-05
 Reference value :  1.32601e-05
 Reference value :  1.32615e-05
 Reference value :  1.32637e-05
 Reference value :  1.32657e-05
 Reference value :  1.32693e-05
 Reference value :  1.32739e-05
 Reference value :  1.32831e-05
 Reference value :  1.33014e-05
 Reference value :  1.33380e-05
 Reference value :  1.34113e-05
 Reference value :  1.35000e-05
 Reference value :  1.35000e-05
 Reference value :  1.35000e-05
 Reference value :  1.35001e-05
 Reference value :  1.35001e-05
 Reference value :  1.35001e-05
 Reference value :  1.35001e-05
 Reference value :  1.35001e-05
 Reference value :  1.35002e-05
 Reference value :  1.35002e-05
 Reference value :  1.35004e-05
 Reference value :  1.35005e-05
 Reference value :  1.35009e-05
 Reference value :  1.35014e-05
 Reference value :  1.35019e-05
 Reference value :  1.35024e-05
 Reference value :  1.35031e-05
 Reference value :  1.35037e-05
 Reference value :  1.35045e-05
 Reference value :  1.35051e-05
 Reference value :  1.35058e-05
 Reference value :  1.35065e-05
 Reference value :  1.35072e-05
 Reference value :  1.35079e-05
 Reference value :  1.35090e-05
 Reference value :  1.35099e-05
 Reference value :  1.35118e-05
 Reference value :  1.35129e-05
 Reference value :  1.35143e-05
 Reference value :  1.35156e-05
 Reference value :  1.35172e-05
 Reference value :  1.35186e-05
 Reference value :  1.35200e-05
 Reference value :  1.35215e-05
 Reference value :  1.35228e-05
 Reference value :  1.35242e-05
 Reference value :  1.35258e-05
 Reference value :  1.35278e-05
 Reference value :  1.35301e-05
 Reference value :  1.35337e-05
 Reference value :  1.35390e-05
 Reference value :  1.35451e-05
 Reference value :  1.35509e-05
 Reference value :  1.35576e-05
 Reference value :  1.35643e-05
 Reference value :  1.35699e-05
 Reference value :  1.35758e-05
 Reference value :  1.35822e-05
 Reference value :  1.35880e-05
 Reference value :  1.35996e-05
 Reference value :  1.36124e-05
 Reference value :  1.36363e-05
 Reference value :  1.36775e-05
 Reference value :  1.37409e-05
 Reference value :  1.37501e-05
 Reference value :  1.37501e-05
 Reference value :  1.37501e-05
 Reference value :  1.37502e-05
 Reference value :  1.37502e-05
 Reference value :  1.37502e-05
 Reference value :  1.37502e-05
 Reference value :  1.37502e-05
 Reference value :  1.37502e-05
 Reference value :  1.37502e-05
 Reference value :  1.37502e-05
 Reference value :  1.37503e-05
 Reference value :  1.37504e-05
 Reference value :  1.37506e-05
 Reference value :  1.37509e-05
 Reference value :  1.37514e-05
 Reference value :  1.37520e-05
 Reference value :  1.37526e-05
 Reference value :  1.37533e-05
 Reference value :  1.37541e-05
 Reference value :  1.37547e-05
 Reference value :  1.37555e-05
 Reference value :  1.37564e-05
 Reference value :  1.37572e-05
 Reference value :  1.37584e-05
 Reference value :  1.37604e-05
 Reference value :  1.37624e-05
 Reference value :  1.37657e-05
 Reference value :  1.37697e-05
 Reference value :  1.37776e-05
 Reference value :  1.37935e-05
 Reference value :  1.38253e-05
 Reference value :  1.38890e-05
 Reference value :  1.40000e-05
 Reference value :  1.40000e-05
 Reference value :  1.40000e-05
 Reference value :  1.40001e-05
 Reference value :  1.40001e-05
 Reference value :  1.40001e-05
 Reference value :  1.40001e-05
 Reference value :  1.40001e-05
 Reference value :  1.40002e-05
 Reference value :  1.40002e-05
 Reference value :  1.40004e-05
 Reference value :  1.40005e-05
 Reference value :  1.40009e-05
 Reference value :  1.40014e-05
 Reference value :  1.40019e-05
 Reference value :  1.40025e-05
 Reference value :  1.40031e-05
 Reference value :  1.40038e-05
 Reference value :  1.40045e-05
 Reference value :  1.40054e-05
 Reference value :  1.40062e-05
 Reference value :  1.40075e-05
 Reference value :  1.40088e-05
 Reference value :  1.40101e-05
 Reference value :  1.40115e-05
 Reference value :  1.40129e-05
 Reference value :  1.40142e-05
 Reference value :  1.40158e-05
 Reference value :  1.40175e-05
 Reference value :  1.40206e-05
 Reference value :  1.40251e-05
 Reference value :  1.40336e-05
 Reference value :  1.40495e-05
 Reference value :  1.40789e-05
 Reference value :  1.41373e-05
 Reference value :  1.42501e-05
 Reference value :  1.42501e-05
 Reference value :  1.42501e-05
 Reference value :  1.42502e-05
 Reference value :  1.42502e-05
 Reference value :  1.42502e-05
 Reference value :  1.42502e-05
 Reference value :  1.42502e-05
 Reference value :  1.42502e-05
 Reference value :  1.42502e-05
 Reference value :  1.42502e-05
 Reference value :  1.42503e-05
 Reference value :  1.42504e-05
 Reference value :  1.42506e-05
 Reference value :  1.42509e-05
 Reference value :  1.42514e-05
 Reference value :  1.42520e-05
 Reference value :  1.42526e-05
 Reference value :  1.42533e-05
 Reference value :  1.42541e-05
 Reference value :  1.42547e-05
 Reference value :  1.42554e-05
 Reference value :  1.42561e-05
 Reference value :  1.42568e-05
 Reference value :  1.42578e-05
 Reference value :  1.42588e-05
 Reference value :  1.42609e-05
 Reference value :  1.42631e-05
 Reference value :  1.42668e-05
 Reference value :  1.42716e-05
 Reference value :  1.42812e-05
 Reference value :  1.43002e-05
 Reference value :  1.43384e-05
 Reference value :  1.44147e-05
 Reference value :  1.45000e-05
 Reference value :  1.45000e-05
 Reference value :  1.45000e-05
 Reference value :  1.45001e-05
 Reference value :  1.45001e-05
 Reference value :  1.45001e-05
 Reference value :  1.45001e-05
 Reference value :  1.45001e-05
 Reference value :  1.45002e-05
 Reference value :  1.45002e-05
 Reference value :  1.45004e-05
 Reference value :  1.45005e-05
 Reference value :  1.45009e-05
 Reference value :  1.45014e-05
 Reference value :  1.45019e-05
 Reference value :  1.45024e-05
 Reference value :  1.45031e-05
 Reference value :  1.45038e-05
 Reference value :  1.45045e-05
 Reference value :  1.45052e-05
 Reference value :  1.45059e-05
 Reference value :  1.45067e-05
 Reference value :  1.45074e-05
 Reference value :  1.45083e-05
 Reference value :  1.45094e-05
 Reference value :  1.45107e-05
 Reference value :  1.45128e-05
 Reference value :  1.45153e-05
 Reference value :  1.45173e-05
 Reference value :  1.45194e-05
 Reference value :  1.45210e-05
 Reference value :  1.45228e-05
 Reference value :  1.45246e-05
 Reference value :  1.45265e-05
 Reference value :  1.45286e-05
 Reference value :  1.45310e-05
 Reference value :  1.45346e-05
 Reference value :  1.45394e-05
 Reference value :  1.45455e-05
 Reference value :  1.45528e-05
 Reference value :  1.45606e-05
 Reference value :  1.45661e-05
 Reference value :  1.45715e-05
 Reference value :  1.45786e-05
 Reference value :  1.45858e-05
 Reference value :  1.45927e-05
 Reference value :  1.46011e-05
 Reference value :  1.46095e-05
 Reference value :  1.46249e-05
 Reference value :  1.46426e-05
 Reference value :  1.46707e-05
 Reference value :  1.47132e-05
 Reference value :  1.47501e-05
 Reference value :  1.47501e-05
 Reference value :  1.47501e-05
 Reference value :  1.47502e-05
 Reference value :  1.47502e-05
 Reference value :  1.47502e-05
 Reference value :  1.47502e-05
 Reference value :  1.47502e-05
 Reference value :  1.47502e-05
 Reference value :  1.47502e-05
 Reference value :  1.47502e-05
 Reference value :  1.47503e-05
 Reference value :  1.47504e-05
 Reference value :  1.47506e-05
 Reference value :  1.47509e-05
 Reference value :  1.47514e-05
 Reference value :  1.47520e-05
 Reference value :  1.47526e-05
 Reference value :  1.47533e-05
 Reference value :  1.47541e-05
 Reference value :  1.47547e-05
 Reference value :  1.47554e-05
 Reference value :  1.47562e-05
 Reference value :  1.47572e-05
 Reference value :  1.47582e-05
 Reference value :  1.47602e-05
 Reference value :  1.47621e-05
 Reference value :  1.47653e-05
 Reference value :  1.47691e-05
 Reference value :  1.47768e-05
 Reference value :  1.47922e-05
 Reference value :  1.48230e-05
 Reference value :  1.48845e-05
 Reference value :  1.50000e-05
 Reference value :  1.50000e-05
 Reference value :  1.50000e-05
 Reference value :  1.50001e-05
 Reference value :  1.50001e-05
 Reference value :  1.50001e-05
 Reference value :  1.50001e-05
 Reference value :  1.50001e-05
 Reference value :  1.50002e-05
 Reference value :  1.50002e-05
 Reference value :  1.50004e-05
 Reference value :  1.50005e-05
 Reference value :  1.50009e-05
 Reference value :  1.50014e-05
 Reference value :  1.50019e-05
 Reference value :  1.50024e-05
 Reference value :  1.50030e-05
 Reference value :  1.50037e-05
 Reference value :  1.50046e-05
 Reference value :  1.50054e-05
 Reference value :  1.50063e-05
 Reference value :  1.50074e-05
 Reference value :  1.50087e-05
 Reference value :  1.50099e-05
 Reference value :  1.50111e-05
 Reference value :  1.50122e-05
 Reference value :  1.50135e-05
 Reference value :  1.50148e-05
 Reference value :  1.50163e-05
 Reference value :  1.50193e-05
 Reference value :  1.50252e-05
 Reference value :  1.50356e-05
 Reference value :  1.50563e-05
 Reference value :  1.50978e-05
 Reference value :  1.51807e-05
 Reference value :  1.52501e-05
 Reference value :  1.52501e-05
 Reference value :  1.52501e-05
 Reference value :  1.52502e-05
 Reference value :  1.52502e-05
 Reference value :  1.52502e-05
 Reference value :  1.52502e-05
 Reference value :  1.52502e-05
 Reference value :  1.52502e-05
 Reference value :  1.52502e-05
 Reference value :  1.52502e-05
 Reference value :  1.52503e-05
 Reference value :  1.52504e-05
 Reference value :  1.52506e-05
 Reference value :  1.52509e-05
 Reference value :  1.52514e-05
 Reference value :  1.52520e-05
 Reference value :  1.52526e-05
 Reference value :  1.52533e-05
 Reference value :  1.52541e-05
 Reference value :  1.52548e-05
 Reference value :  1.52555e-05
 Reference value :  1.52561e-05
 Reference value :  1.52569e-05
 Reference value :  1.52579e-05
 Reference value :  1.52589e-05
 Reference value :  1.52601e-05
 Reference value :  1.52615e-05
 Reference value :  1.52637e-05
 Reference value :  1.52657e-05
 Reference value :  1.52694e-05
 Reference value :  1.52740e-05
 Reference value :  1.52832e-05
 Reference value :  1.53016e-05
 Reference value :  1.53384e-05
 Reference value :  1.54120e-05
 Reference value :  1.55000e-05
 Reference value :  1.55013e-05
 Reference value :  1.55038e-05
 Reference value :  1.55051e-05
 Reference value :  1.55063e-05
 Reference value :  1.55076e-05
 Reference value :  1.55088e-05
 Reference value :  1.55100e-05
 Reference value :  1.55114e-05
 Reference value :  1.55130e-05
 Reference value :  1.55142e-05
 Reference value :  1.55156e-05
 Reference value :  1.55168e-05
 Reference value :  1.55182e-05
 Reference value :  1.55195e-05
 Reference value :  1.55207e-05
 Reference value :  1.55219e-05
 Reference value :  1.55230e-05
 Reference value :  1.55242e-05
 Reference value :  1.55256e-05
 Reference value :  1.55274e-05
 Reference value :  1.55295e-05
 Reference value :  1.55327e-05
 Reference value :  1.55366e-05
 Reference value :  1.55416e-05
 Reference value :  1.55474e-05
 Reference value :  1.55577e-05
 Reference value :  1.55763e-05
 Reference value :  1.56064e-05
 Reference value :  1.56618e-05
 Reference value :  1.57501e-05
 Reference value :  1.57501e-05
 Reference value :  1.57501e-05
 Reference value :  1.57502e-05
 Reference value :  1.57502e-05
 Reference value :  1.57502e-05
 Reference value :  1.57502e-05
 Reference value :  1.57502e-05
 Reference value :  1.57502e-05
 Reference value :  1.57502e-05
 Reference value :  1.57502e-05
 Reference value :  1.57503e-05
 Reference value :  1.57504e-05
 Reference value :  1.57506e-05
 Reference value :  1.57509e-05
 Reference value :  1.57514e-05
 Reference value :  1.57520e-05
 Reference value :  1.57526e-05
 Reference value :  1.57533e-05
 Reference value :  1.57542e-05
 Reference value :  1.57548e-05
 Reference value :  1.57554e-05
 Reference value :  1.57563e-05
 Reference value :  1.57573e-05
 Reference value :  1.57583e-05
[...]
 Reference value :  1.74251e-04
 Reference value :  1.74251e-04
 Reference value :  1.74252e-04
 Reference value :  1.74253e-04
 Reference value :  1.74253e-04
 Reference value :  1.74254e-04
 Reference value :  1.74255e-04
 Reference value :  1.74255e-04
 Reference value :  1.74256e-04
 Reference value :  1.74257e-04
 Reference value :  1.74258e-04
 Reference value :  1.74260e-04
 Reference value :  1.74262e-04
 Reference value :  1.74266e-04
 Reference value :  1.74270e-04
 Reference value :  1.74277e-04
 Reference value :  1.74293e-04
 Reference value :  1.74325e-04
 Reference value :  1.74388e-04
 Reference value :  1.74500e-04
 Reference value :  1.74500e-04
 Reference value :  1.74500e-04
 Reference value :  1.74500e-04
 Reference value :  1.74500e-04
 Reference value :  1.74500e-04
 Reference value :  1.74500e-04
 Reference value :  1.74500e-04
 Reference value :  1.74500e-04
 Reference value :  1.74500e-04
 Reference value :  1.74500e-04
 Reference value :  1.74501e-04
 Reference value :  1.74501e-04
 Reference value :  1.74501e-04
 Reference value :  1.74502e-04
 Reference value :  1.74502e-04
 Reference value :  1.74503e-04
 Reference value :  1.74504e-04
 Reference value :  1.74505e-04
 Reference value :  1.74505e-04
 Reference value :  1.74506e-04
 Reference value :  1.74507e-04
 Reference value :  1.74509e-04
 Reference value :  1.74510e-04
 Reference value :  1.74511e-04
 Reference value :  1.74512e-04
 Reference value :  1.74514e-04
 Reference value :  1.74515e-04
 Reference value :  1.74517e-04
 Reference value :  1.74520e-04
 Reference value :  1.74525e-04
 Reference value :  1.74536e-04
 Reference value :  1.74559e-04
 Reference value :  1.74603e-04
 Reference value :  1.74692e-04
 Reference value :  1.74750e-04
 Reference value :  1.74750e-04
 Reference value :  1.74750e-04
 Reference value :  1.74750e-04
 Reference value :  1.74750e-04
 Reference value :  1.74750e-04
 Reference value :  1.74750e-04
 Reference value :  1.74750e-04
 Reference value :  1.74750e-04
 Reference value :  1.74750e-04
 Reference value :  1.74750e-04
 Reference value :  1.74750e-04
 Reference value :  1.74750e-04
 Reference value :  1.74751e-04
 Reference value :  1.74751e-04
 Reference value :  1.74751e-04
 Reference value :  1.74752e-04
 Reference value :  1.74753e-04
 Reference value :  1.74753e-04
 Reference value :  1.74754e-04
 Reference value :  1.74755e-04
 Reference value :  1.74755e-04
 Reference value :  1.74756e-04
 Reference value :  1.74757e-04
 Reference value :  1.74758e-04
 Reference value :  1.74759e-04
 Reference value :  1.74761e-04
 Reference value :  1.74763e-04
 Reference value :  1.74767e-04
 Reference value :  1.74772e-04
 Reference value :  1.74782e-04
 Reference value :  1.74801e-04
 Reference value :  1.74840e-04
 Reference value :  1.74919e-04
 Reference value :  1.75000e-04
 Reference value :  1.75000e-04
 Reference value :  1.75000e-04
 Reference value :  1.75000e-04
 Reference value :  1.75000e-04
 Reference value :  1.75000e-04
 Reference value :  1.75000e-04
 Reference value :  1.75000e-04
 Reference value :  1.75000e-04
 Reference value :  1.75000e-04
 Reference value :  1.75000e-04
 Reference value :  1.75001e-04
 Reference value :  1.75001e-04
 Reference value :  1.75001e-04
 Reference value :  1.75002e-04
 Reference value :  1.75002e-04
 Reference value :  1.75003e-04
 Reference value :  1.75004e-04
 Reference value :  1.75005e-04
 Reference value :  1.75005e-04
 Reference value :  1.75006e-04
 Reference value :  1.75007e-04
 Reference value :  1.75008e-04
 Reference value :  1.75008e-04
 Reference value :  1.75010e-04
 Reference value :  1.75011e-04
 Reference value :  1.75013e-04
 Reference value :  1.75016e-04
 Reference value :  1.75017e-04
 Reference value :  1.75019e-04
 Reference value :  1.75021e-04
 Reference value :  1.75022e-04
 Reference value :  1.75024e-04
 Reference value :  1.75026e-04
 Reference value :  1.75028e-04
 Reference value :  1.75031e-04
 Reference value :  1.75034e-04
 Reference value :  1.75042e-04
 Reference value :  1.75049e-04
 Reference value :  1.75056e-04
 Reference value :  1.75061e-04
 Reference value :  1.75068e-04
 Reference value :  1.75073e-04
 Reference value :  1.75077e-04
 Reference value :  1.75083e-04
 Reference value :  1.75089e-04
 Reference value :  1.75097e-04
 Reference value :  1.75103e-04
 Reference value :  1.75110e-04
 Reference value :  1.75123e-04
 Reference value :  1.75136e-04
 Reference value :  1.75151e-04
 Reference value :  1.75174e-04
 Reference value :  1.75212e-04
 Reference value :  1.75250e-04
 Reference value :  1.75250e-04
 Reference value :  1.75250e-04
 Reference value :  1.75250e-04
 Reference value :  1.75250e-04
 Reference value :  1.75250e-04
 Reference value :  1.75250e-04
 Reference value :  1.75250e-04
 Reference value :  1.75250e-04
 Reference value :  1.75250e-04
 Reference value :  1.75250e-04
 Reference value :  1.75250e-04
 Reference value :  1.75250e-04
 Reference value :  1.75251e-04
 Reference value :  1.75251e-04
 Reference value :  1.75251e-04
 Reference value :  1.75252e-04
 Reference value :  1.75253e-04
 Reference value :  1.75253e-04
 Reference value :  1.75254e-04
 Reference value :  1.75255e-04
 Reference value :  1.75255e-04
 Reference value :  1.75256e-04
 Reference value :  1.75257e-04
 Reference value :  1.75258e-04
 Reference value :  1.75260e-04
 Reference value :  1.75262e-04
 Reference value :  1.75265e-04
 Reference value :  1.75269e-04
 Reference value :  1.75277e-04
 Reference value :  1.75292e-04
 Reference value :  1.75323e-04
 Reference value :  1.75385e-04
 Reference value :  1.75500e-04
 Reference value :  1.75500e-04
 Reference value :  1.75500e-04
 Reference value :  1.75500e-04
 Reference value :  1.75500e-04
 Reference value :  1.75500e-04
 Reference value :  1.75500e-04
 Reference value :  1.75500e-04
 Reference value :  1.75500e-04
 Reference value :  1.75500e-04
 Reference value :  1.75500e-04
 Reference value :  1.75501e-04
 Reference value :  1.75501e-04
 Reference value :  1.75501e-04
 Reference value :  1.75502e-04
 Reference value :  1.75502e-04
 Reference value :  1.75503e-04
 Reference value :  1.75504e-04
 Reference value :  1.75505e-04
 Reference value :  1.75505e-04
 Reference value :  1.75506e-04
 Reference value :  1.75508e-04
 Reference value :  1.75509e-04
 Reference value :  1.75510e-04
 Reference value :  1.75512e-04
 Reference value :  1.75513e-04
 Reference value :  1.75514e-04
 Reference value :  1.75516e-04
 Reference value :  1.75517e-04
 Reference value :  1.75521e-04
 Reference value :  1.75525e-04
 Reference value :  1.75534e-04
 Reference value :  1.75550e-04
 Reference value :  1.75579e-04
 Reference value :  1.75638e-04
 Reference value :  1.75750e-04
 Reference value :  1.75750e-04
 Reference value :  1.75750e-04
 Reference value :  1.75750e-04
 Reference value :  1.75750e-04
 Reference value :  1.75750e-04
 Reference value :  1.75750e-04
 Reference value :  1.75750e-04
 Reference value :  1.75750e-04
 Reference value :  1.75750e-04
 Reference value :  1.75750e-04
 Reference value :  1.75750e-04
 Reference value :  1.75750e-04
 Reference value :  1.75751e-04
 Reference value :  1.75751e-04
 Reference value :  1.75751e-04
 Reference value :  1.75752e-04
 Reference value :  1.75753e-04
 Reference value :  1.75753e-04
 Reference value :  1.75754e-04
 Reference value :  1.75755e-04
 Reference value :  1.75755e-04
 Reference value :  1.75756e-04
 Reference value :  1.75757e-04
 Reference value :  1.75758e-04
 Reference value :  1.75759e-04
 Reference value :  1.75760e-04
 Reference value :  1.75761e-04
 Reference value :  1.75763e-04
 Reference value :  1.75766e-04
 Reference value :  1.75769e-04
 Reference value :  1.75773e-04
 Reference value :  1.75782e-04
 Reference value :  1.75800e-04
 Reference value :  1.75836e-04
 Reference value :  1.75907e-04
 Reference value :  1.76000e-04
 Reference value :  1.76000e-04
 Reference value :  1.76000e-04
 Reference value :  1.76000e-04
 Reference value :  1.76000e-04
 Reference value :  1.76000e-04
 Reference value :  1.76000e-04
 Reference value :  1.76000e-04
 Reference value :  1.76000e-04
 Reference value :  1.76000e-04
 Reference value :  1.76000e-04
 Reference value :  1.76001e-04
 Reference value :  1.76001e-04
 Reference value :  1.76001e-04
 Reference value :  1.76002e-04
 Reference value :  1.76002e-04
 Reference value :  1.76003e-04
 Reference value :  1.76004e-04
 Reference value :  1.76005e-04
 Reference value :  1.76005e-04
 Reference value :  1.76006e-04
 Reference value :  1.76007e-04
 Reference value :  1.76007e-04
 Reference value :  1.76008e-04
 Reference value :  1.76009e-04
 Reference value :  1.76010e-04
 Reference value :  1.76012e-04
 Reference value :  1.76013e-04
 Reference value :  1.76015e-04
 Reference value :  1.76016e-04
 Reference value :  1.76018e-04
 Reference value :  1.76019e-04
 Reference value :  1.76020e-04
 Reference value :  1.76022e-04
 Reference value :  1.76024e-04
 Reference value :  1.76025e-04
 Reference value :  1.76027e-04
 Reference value :  1.76030e-04
 Reference value :  1.76033e-04
 Reference value :  1.76039e-04
 Reference value :  1.76045e-04
 Reference value :  1.76051e-04
 Reference value :  1.76059e-04
 Reference value :  1.76071e-04
 Reference value :  1.76091e-04
 Reference value :  1.76132e-04
 Reference value :  1.76192e-04
 Reference value :  1.76250e-04
 Reference value :  1.76250e-04
 Reference value :  1.76250e-04
 Reference value :  1.76250e-04
 Reference value :  1.76250e-04
 Reference value :  1.76250e-04
 Reference value :  1.76250e-04
 Reference value :  1.76250e-04
 Reference value :  1.76250e-04
 Reference value :  1.76250e-04
 Reference value :  1.76250e-04
 Reference value :  1.76250e-04
 Reference value :  1.76250e-04
 Reference value :  1.76251e-04
 Reference value :  1.76251e-04
 Reference value :  1.76251e-04
 Reference value :  1.76252e-04
 Reference value :  1.76253e-04
 Reference value :  1.76253e-04
 Reference value :  1.76254e-04
 Reference value :  1.76255e-04
 Reference value :  1.76255e-04
 Reference value :  1.76256e-04
 Reference value :  1.76257e-04
 Reference value :  1.76258e-04
 Reference value :  1.76260e-04
 Reference value :  1.76262e-04
 Reference value :  1.76265e-04
 Reference value :  1.76269e-04
 Reference value :  1.76277e-04
 Reference value :  1.76292e-04
 Reference value :  1.76323e-04
 Reference value :  1.76385e-04
 Reference value :  1.76500e-04
 Reference value :  1.76500e-04
 Reference value :  1.76500e-04
 Reference value :  1.76500e-04
 Reference value :  1.76500e-04
 Reference value :  1.76500e-04
 Reference value :  1.76500e-04
 Reference value :  1.76500e-04
 Reference value :  1.76500e-04
 Reference value :  1.76500e-04
 Reference value :  1.76500e-04
 Reference value :  1.76501e-04
 Reference value :  1.76501e-04
 Reference value :  1.76501e-04
 Reference value :  1.76502e-04
 Reference value :  1.76502e-04
 Reference value :  1.76503e-04
 Reference value :  1.76504e-04
 Reference value :  1.76505e-04
 Reference value :  1.76505e-04
 Reference value :  1.76506e-04
 Reference value :  1.76507e-04
 Reference value :  1.76509e-04
 Reference value :  1.76510e-04
 Reference value :  1.76511e-04
 Reference value :  1.76512e-04
 Reference value :  1.76514e-04
 Reference value :  1.76515e-04
 Reference value :  1.76516e-04
 Reference value :  1.76519e-04
 Reference value :  1.76525e-04
 Reference value :  1.76536e-04
 Reference value :  1.76556e-04
 Reference value :  1.76598e-04
 Reference value :  1.76681e-04
 Reference value :  1.76750e-04
 Reference value :  1.76750e-04
 Reference value :  1.76750e-04
 Reference value :  1.76750e-04
 Reference value :  1.76750e-04
 Reference value :  1.76750e-04
 Reference value :  1.76750e-04
 Reference value :  1.76750e-04
 Reference value :  1.76750e-04
 Reference value :  1.76750e-04
 Reference value :  1.76750e-04
 Reference value :  1.76750e-04
 Reference value :  1.76750e-04
 Reference value :  1.76751e-04
 Reference value :  1.76751e-04
 Reference value :  1.76751e-04
 Reference value :  1.76752e-04
 Reference value :  1.76753e-04
 Reference value :  1.76753e-04
 Reference value :  1.76754e-04
 Reference value :  1.76755e-04
 Reference value :  1.76755e-04
 Reference value :  1.76756e-04
 Reference value :  1.76757e-04
 Reference value :  1.76758e-04
 Reference value :  1.76759e-04
 Reference value :  1.76760e-04
 Reference value :  1.76762e-04
 Reference value :  1.76764e-04
 Reference value :  1.76766e-04
 Reference value :  1.76769e-04
 Reference value :  1.76774e-04
 Reference value :  1.76783e-04
 Reference value :  1.76801e-04
 Reference value :  1.76837e-04
 Reference value :  1.76910e-04
 Reference value :  1.77000e-04
 Reference value :  1.77000e-04
 Reference value :  1.77000e-04
 Reference value :  1.77000e-04
 Reference value :  1.77000e-04
 Reference value :  1.77000e-04
 Reference value :  1.77000e-04
 Reference value :  1.77000e-04
 Reference value :  1.77000e-04
 Reference value :  1.77000e-04
 Reference value :  1.77000e-04
 Reference value :  1.77001e-04
 Reference value :  1.77001e-04
 Reference value :  1.77001e-04
 Reference value :  1.77002e-04
 Reference value :  1.77002e-04
 Reference value :  1.77003e-04
 Reference value :  1.77004e-04
 Reference value :  1.77005e-04
 Reference value :  1.77005e-04
 Reference value :  1.77006e-04
 Reference value :  1.77007e-04
 Reference value :  1.77007e-04
 Reference value :  1.77008e-04
 Reference value :  1.77009e-04
 Reference value :  1.77010e-04
 Reference value :  1.77012e-04
 Reference value :  1.77013e-04
 Reference value :  1.77014e-04
 Reference value :  1.77016e-04
 Reference value :  1.77017e-04
 Reference value :  1.77019e-04
 Reference value :  1.77021e-04
 Reference value :  1.77022e-04
 Reference value :  1.77023e-04
 Reference value :  1.77024e-04
 Reference value :  1.77026e-04
 Reference value :  1.77028e-04
 Reference value :  1.77030e-04
 Reference value :  1.77034e-04
 Reference value :  1.77038e-04
 Reference value :  1.77045e-04
 Reference value :  1.77054e-04
 Reference value :  1.77070e-04
 Reference value :  1.77094e-04
 Reference value :  1.77113e-04
 Reference value :  1.77125e-04
 Reference value :  1.77139e-04
 Reference value :  1.77156e-04
 Reference value :  1.77175e-04
 Reference value :  1.77209e-04
 Reference value :  1.77236e-04
 Reference value :  1.77250e-04
 Reference value :  1.77250e-04
 Reference value :  1.77250e-04
 Reference value :  1.77250e-04
 Reference value :  1.77250e-04
 Reference value :  1.77250e-04
 Reference value :  1.77250e-04
 Reference value :  1.77250e-04
 Reference value :  1.77250e-04
 Reference value :  1.77250e-04
 Reference value :  1.77250e-04
 Reference value :  1.77250e-04
 Reference value :  1.77250e-04
 Reference value :  1.77251e-04
 Reference value :  1.77251e-04
 Reference value :  1.77251e-04
 Reference value :  1.77252e-04
 Reference value :  1.77253e-04
 Reference value :  1.77253e-04
 Reference value :  1.77254e-04
 Reference value :  1.77255e-04
 Reference value :  1.77255e-04
 Reference value :  1.77256e-04
 Reference value :  1.77257e-04
 Reference value :  1.77258e-04
 Reference value :  1.77260e-04
 Reference value :  1.77262e-04
 Reference value :  1.77265e-04
 Reference value :  1.77269e-04
 Reference value :  1.77277e-04
 Reference value :  1.77293e-04
 Reference value :  1.77324e-04
 Reference value :  1.77386e-04
 Reference value :  1.77500e-04
 Reference value :  1.77500e-04
 Reference value :  1.77500e-04
 Reference value :  1.77500e-04
 Reference value :  1.77500e-04
 Reference value :  1.77500e-04
 Reference value :  1.77500e-04
 Reference value :  1.77500e-04
 Reference value :  1.77500e-04
 Reference value :  1.77500e-04
 Reference value :  1.77500e-04
 Reference value :  1.77501e-04
 Reference value :  1.77501e-04
 Reference value :  1.77501e-04
 Reference value :  1.77502e-04
 Reference value :  1.77503e-04
 Reference value :  1.77503e-04
 Reference value :  1.77504e-04
 Reference value :  1.77505e-04
 Reference value :  1.77505e-04
 Reference value :  1.77506e-04
 Reference value :  1.77507e-04
 Reference value :  1.77509e-04
 Reference value :  1.77510e-04
 Reference value :  1.77511e-04
 Reference value :  1.77513e-04
 Reference value :  1.77514e-04
 Reference value :  1.77515e-04
 Reference value :  1.77517e-04
 Reference value :  1.77520e-04
 Reference value :  1.77526e-04
 Reference value :  1.77537e-04
 Reference value :  1.77559e-04
 Reference value :  1.77603e-04
 Reference value :  1.77692e-04
 Reference value :  1.77750e-04
 Reference value :  1.77750e-04
 Reference value :  1.77750e-04
 Reference value :  1.77750e-04
 Reference value :  1.77750e-04
 Reference value :  1.77750e-04
 Reference value :  1.77750e-04
 Reference value :  1.77750e-04
 Reference value :  1.77750e-04
 Reference value :  1.77750e-04
 Reference value :  1.77750e-04
 Reference value :  1.77750e-04
 Reference value :  1.77750e-04
 Reference value :  1.77751e-04
 Reference value :  1.77751e-04
 Reference value :  1.77751e-04
 Reference value :  1.77752e-04
 Reference value :  1.77753e-04
 Reference value :  1.77753e-04
 Reference value :  1.77754e-04
 Reference value :  1.77755e-04
 Reference value :  1.77755e-04
 Reference value :  1.77756e-04
 Reference value :  1.77757e-04
 Reference value :  1.77758e-04
 Reference value :  1.77759e-04
 Reference value :  1.77761e-04
 Reference value :  1.77763e-04
 Reference value :  1.77766e-04
 Reference value :  1.77771e-04
 Reference value :  1.77780e-04
 Reference value :  1.77797e-04
 Reference value :  1.77833e-04
 Reference value :  1.77904e-04
 Reference value :  1.78000e-04
 Reference value :  1.78000e-04
 Reference value :  1.78000e-04
 Reference value :  1.78000e-04
 Reference value :  1.78000e-04
 Reference value :  1.78000e-04
 Reference value :  1.78000e-04
 Reference value :  1.78000e-04
 Reference value :  1.78000e-04
 Reference value :  1.78000e-04
 Reference value :  1.78000e-04
 Reference value :  1.78001e-04
 Reference value :  1.78001e-04
 Reference value :  1.78001e-04
 Reference value :  1.78002e-04
 Reference value :  1.78002e-04
 Reference value :  1.78003e-04
 Reference value :  1.78004e-04
 Reference value :  1.78005e-04
 Reference value :  1.78005e-04
 Reference value :  1.78006e-04
 Reference value :  1.78007e-04
 Reference value :  1.78008e-04
 Reference value :  1.78008e-04
 Reference value :  1.78010e-04
 Reference value :  1.78011e-04
 Reference value :  1.78013e-04
 Reference value :  1.78016e-04
 Reference value :  1.78018e-04
 Reference value :  1.78020e-04
 Reference value :  1.78022e-04
 Reference value :  1.78024e-04
 Reference value :  1.78028e-04
 Reference value :  1.78033e-04
 Reference value :  1.78042e-04
 Reference value :  1.78056e-04
 Reference value :  1.78080e-04
 Reference value :  1.78122e-04
 Reference value :  1.78195e-04
 Reference value :  1.78250e-04
 Reference value :  1.78250e-04
 Reference value :  1.78250e-04
 Reference value :  1.78250e-04
 Reference value :  1.78250e-04
 Reference value :  1.78250e-04
 Reference value :  1.78250e-04
 Reference value :  1.78250e-04
 Reference value :  1.78250e-04
 Reference value :  1.78250e-04
 Reference value :  1.78250e-04
 Reference value :  1.78250e-04
 Reference value :  1.78250e-04
 Reference value :  1.78251e-04
 Reference value :  1.78251e-04
 Reference value :  1.78251e-04
 Reference value :  1.78252e-04
 Reference value :  1.78253e-04
 Reference value :  1.78253e-04
 Reference value :  1.78254e-04
 Reference value :  1.78255e-04
 Reference value :  1.78256e-04
 Reference value :  1.78258e-04
 Reference value :  1.78259e-04
 Reference value :  1.78261e-04
 Reference value :  1.78264e-04
 Reference value :  1.78267e-04
 Reference value :  1.78273e-04
 Reference value :  1.78284e-04
 Reference value :  1.78307e-04
 Reference value :  1.78351e-04
 Reference value :  1.78441e-04
 Reference value :  1.78500e-04
No. of Data Rows : 27466
ngspice-44 done
