
Note: Compatibility modes selected: hs a


Circuit: ** sch_path: /home/audrey/cace/sar-adc-using-sky130-pdk/runs/run_2025-09-09_11-52-19/parameters/power/run_3/power_consumption.sch

option SCALE: Scale is set to 1e-06 for instance and model parameters
option SCALE: Scale is set to 1e-06 for instance and model parameters
option SCALE: Scale is set to 1e-06 for instance and model parameters
option SCALE: Scale is set to 1e-06 for instance and model parameters
Doing analysis at TEMP = 27.000000 and TNOM = 27.000000

Using KLU as Direct Linear Solver
 Reference value :  0.00000e+00
 Reference value :  1.00000e-12
 Reference value :  2.00000e-12
 Reference value :  8.00000e-12
 Reference value :  3.20000e-11
 Reference value :  6.40000e-11
 Reference value :  1.00000e-10
 Reference value :  1.06400e-10
 Reference value :  1.19200e-10
 Reference value :  1.44800e-10
 Reference value :  1.96000e-10
 Reference value :  2.98400e-10
 Reference value :  4.51261e-10
 Reference value :  7.56984e-10
 Reference value :  1.04182e-09
 Reference value :  1.50316e-09
 Reference value :  1.91800e-09
 Reference value :  2.38904e-09
 Reference value :  2.86645e-09
 Reference value :  3.27870e-09
 Reference value :  3.75697e-09
 Reference value :  4.27886e-09
 Reference value :  4.76101e-09
 Reference value :  5.30828e-09
 Reference value :  5.99252e-09
 Reference value :  6.71349e-09
 Reference value :  7.54999e-09
 Reference value :  8.46840e-09
 Reference value :  9.47090e-09
 Reference value :  1.04507e-08
 Reference value :  1.16576e-08
 Reference value :  1.29290e-08
 Reference value :  1.38318e-08
 Reference value :  1.46567e-08
 Reference value :  1.55325e-08
 Reference value :  1.64037e-08
 Reference value :  1.90318e-08
 Reference value :  2.43696e-08
 Reference value :  3.42113e-08
 Reference value :  4.41331e-08
 Reference value :  6.18562e-08
 Reference value :  7.61332e-08
 Reference value :  1.45325e-07
 Reference value :  2.29575e-07
 Reference value :  2.50110e-07
 Reference value :  2.50130e-07
 Reference value :  2.50170e-07
 Reference value :  2.50200e-07
 Reference value :  2.50220e-07
 Reference value :  2.50246e-07
 Reference value :  2.50300e-07
 Reference value :  2.50406e-07
 Reference value :  2.50519e-07
 Reference value :  2.50736e-07
 Reference value :  2.50957e-07
 Reference value :  2.51399e-07
 Reference value :  2.51897e-07
 Reference value :  2.52361e-07
 Reference value :  2.53016e-07
 Reference value :  2.53897e-07
 Reference value :  2.54502e-07
 Reference value :  2.55198e-07
 Reference value :  2.55943e-07
 Reference value :  2.56780e-07
 Reference value :  2.59105e-07
 Reference value :  2.63547e-07
 Reference value :  2.67156e-07
 Reference value :  2.74373e-07
 Reference value :  2.85645e-07
 Reference value :  3.39063e-07
 Reference value :  4.94761e-07
 Reference value :  5.00010e-07
 Reference value :  5.00030e-07
 Reference value :  5.00070e-07
 Reference value :  5.00100e-07
 Reference value :  5.00108e-07
 Reference value :  5.00124e-07
 Reference value :  5.00156e-07
 Reference value :  5.00220e-07
 Reference value :  5.00348e-07
 Reference value :  5.00520e-07
 Reference value :  5.00864e-07
 Reference value :  5.01299e-07
 Reference value :  5.01762e-07
 Reference value :  5.02239e-07
 Reference value :  5.02767e-07
 Reference value :  5.03397e-07
 Reference value :  5.04004e-07
 Reference value :  5.04686e-07
 Reference value :  5.05408e-07
 Reference value :  5.06386e-07
 Reference value :  5.07597e-07
 Reference value :  5.09243e-07
 Reference value :  5.10567e-07
 Reference value :  5.11962e-07
 Reference value :  5.13336e-07
 Reference value :  5.14875e-07
 Reference value :  5.16399e-07
 Reference value :  5.20692e-07
 Reference value :  5.23117e-07
 Reference value :  5.34124e-07
 Reference value :  5.45152e-07
 Reference value :  5.67208e-07
 Reference value :  6.11320e-07
 Reference value :  7.50100e-07
 Reference value :  7.50110e-07
 Reference value :  7.50130e-07
 Reference value :  7.50200e-07
 Reference value :  7.50224e-07
 Reference value :  7.50319e-07
 Reference value :  7.50446e-07
 Reference value :  7.50700e-07
 Reference value :  7.51066e-07
 Reference value :  7.51531e-07
 Reference value :  7.52031e-07
 Reference value :  7.52559e-07
 Reference value :  7.53274e-07
 Reference value :  7.54045e-07
 Reference value :  7.54678e-07
 Reference value :  7.55367e-07
 Reference value :  7.56088e-07
 Reference value :  7.56988e-07
 Reference value :  7.57894e-07
 Reference value :  7.61952e-07
 Reference value :  7.65495e-07
 Reference value :  7.71446e-07
 Reference value :  8.00824e-07
 Reference value :  8.92743e-07
 Reference value :  1.00001e-06
 Reference value :  1.00007e-06
 Reference value :  1.00011e-06
 Reference value :  1.00012e-06
 Reference value :  1.00022e-06
 Reference value :  1.00035e-06
 Reference value :  1.00052e-06
 Reference value :  1.00130e-06
 Reference value :  1.00176e-06
 Reference value :  1.00224e-06
 Reference value :  1.00277e-06
 Reference value :  1.00341e-06
 Reference value :  1.00404e-06
 Reference value :  1.00458e-06
 Reference value :  1.00521e-06
 Reference value :  1.00582e-06
 Reference value :  1.00642e-06
 Reference value :  1.00710e-06
 Reference value :  1.00799e-06
 Reference value :  1.01057e-06
 Reference value :  1.01255e-06
 Reference value :  1.01401e-06
 Reference value :  1.01537e-06
 Reference value :  1.01672e-06
 Reference value :  1.01799e-06
 Reference value :  1.01910e-06
 Reference value :  1.02032e-06
 Reference value :  1.02161e-06
 Reference value :  1.02345e-06
 Reference value :  1.02866e-06
 Reference value :  1.04254e-06
 Reference value :  1.05783e-06
 Reference value :  1.08232e-06
 Reference value :  1.13130e-06
 Reference value :  1.25010e-06
 Reference value :  1.25011e-06
 Reference value :  1.25013e-06
 Reference value :  1.25017e-06
 Reference value :  1.25020e-06
 Reference value :  1.25021e-06
 Reference value :  1.25026e-06
 Reference value :  1.25045e-06
 Reference value :  1.25070e-06
 Reference value :  1.25106e-06
 Reference value :  1.25153e-06
 Reference value :  1.25203e-06
 Reference value :  1.25255e-06
 Reference value :  1.25404e-06
 Reference value :  1.25467e-06
 Reference value :  1.25603e-06
 Reference value :  1.25694e-06
 Reference value :  1.25790e-06
 Reference value :  1.25962e-06
 Reference value :  1.26190e-06
 Reference value :  1.27135e-06
 Reference value :  1.30042e-06
 Reference value :  1.33371e-06
 Reference value :  1.50000e-06
 Reference value :  1.50003e-06
 Reference value :  1.50010e-06
 Reference value :  1.50012e-06
 Reference value :  1.50022e-06
 Reference value :  1.50035e-06
 Reference value :  1.50086e-06
 Reference value :  1.50130e-06
 Reference value :  1.50176e-06
 Reference value :  1.50224e-06
 Reference value :  1.50277e-06
 Reference value :  1.50340e-06
 Reference value :  1.50399e-06
 Reference value :  1.50463e-06
 Reference value :  1.50533e-06
 Reference value :  1.50628e-06
 Reference value :  1.50730e-06
 Reference value :  1.50826e-06
 Reference value :  1.50925e-06
 Reference value :  1.51019e-06
 Reference value :  1.51123e-06
 Reference value :  1.51237e-06
 Reference value :  1.51617e-06
 Reference value :  1.53097e-06
 Reference value :  1.58932e-06
 Reference value :  1.75010e-06
 Reference value :  1.75013e-06
 Reference value :  1.75017e-06
 Reference value :  1.75020e-06
 Reference value :  1.75021e-06
 Reference value :  1.75026e-06
 Reference value :  1.75032e-06
 Reference value :  1.75045e-06
 Reference value :  1.75070e-06
 Reference value :  1.75106e-06
 Reference value :  1.75154e-06
 Reference value :  1.75204e-06
 Reference value :  1.75257e-06
 Reference value :  1.75329e-06
 Reference value :  1.75406e-06
 Reference value :  1.75471e-06
 Reference value :  1.75540e-06
 Reference value :  1.75611e-06
 Reference value :  1.75697e-06
 Reference value :  1.75787e-06
 Reference value :  1.75965e-06
 Reference value :  1.76192e-06
 Reference value :  1.76541e-06
 Reference value :  1.78206e-06
 Reference value :  1.83191e-06
 Reference value :  1.88736e-06
 Reference value :  1.98457e-06
 Reference value :  2.00001e-06
 Reference value :  2.00007e-06
 Reference value :  2.00010e-06
 Reference value :  2.00011e-06
 Reference value :  2.00012e-06
 Reference value :  2.00016e-06
 Reference value :  2.00022e-06
 Reference value :  2.00035e-06
 Reference value :  2.00052e-06
 Reference value :  2.00130e-06
 Reference value :  2.00176e-06
 Reference value :  2.00224e-06
 Reference value :  2.00277e-06
 Reference value :  2.00341e-06
 Reference value :  2.00403e-06
 Reference value :  2.00458e-06
 Reference value :  2.00520e-06
 Reference value :  2.00582e-06
 Reference value :  2.00643e-06
 Reference value :  2.00711e-06
 Reference value :  2.00800e-06
 Reference value :  2.00900e-06
 Reference value :  2.01061e-06
 Reference value :  2.01256e-06
 Reference value :  2.01402e-06
 Reference value :  2.01536e-06
 Reference value :  2.01669e-06
 Reference value :  2.01796e-06
 Reference value :  2.01907e-06
 Reference value :  2.02028e-06
 Reference value :  2.02158e-06
 Reference value :  2.02528e-06
 Reference value :  2.02853e-06
 Reference value :  2.03401e-06
 Reference value :  2.05774e-06
 Reference value :  2.13055e-06
 Reference value :  2.25010e-06
 Reference value :  2.25011e-06
 Reference value :  2.25013e-06
 Reference value :  2.25017e-06
 Reference value :  2.25021e-06
 Reference value :  2.25022e-06
 Reference value :  2.25032e-06
 Reference value :  2.25045e-06
 Reference value :  2.25070e-06
 Reference value :  2.25106e-06
 Reference value :  2.25152e-06
 Reference value :  2.25202e-06
 Reference value :  2.25255e-06
 Reference value :  2.25327e-06
 Reference value :  2.25404e-06
 Reference value :  2.25466e-06
 Reference value :  2.25534e-06
 Reference value :  2.25601e-06
 Reference value :  2.25691e-06
 Reference value :  2.25957e-06
 Reference value :  2.26521e-06
 Reference value :  2.28181e-06
 Reference value :  2.33256e-06
 Reference value :  2.50000e-06
 Reference value :  2.50003e-06
 Reference value :  2.50007e-06
 Reference value :  2.50010e-06
 Reference value :  2.50012e-06
 Reference value :  2.50016e-06
 Reference value :  2.50022e-06
 Reference value :  2.50035e-06
 Reference value :  2.50052e-06
 Reference value :  2.50086e-06
 Reference value :  2.50130e-06
 Reference value :  2.50176e-06
 Reference value :  2.50224e-06
 Reference value :  2.50277e-06
 Reference value :  2.50340e-06
 Reference value :  2.50399e-06
 Reference value :  2.50463e-06
 Reference value :  2.50533e-06
 Reference value :  2.50629e-06
 Reference value :  2.50730e-06
 Reference value :  2.50827e-06
 Reference value :  2.50926e-06
 Reference value :  2.51020e-06
 Reference value :  2.51123e-06
 Reference value :  2.51237e-06
 Reference value :  2.51617e-06
 Reference value :  2.53096e-06
 Reference value :  2.55039e-06
 Reference value :  2.66699e-06
 Reference value :  2.75010e-06
 Reference value :  2.75011e-06
 Reference value :  2.75013e-06
 Reference value :  2.75017e-06
 Reference value :  2.75020e-06
 Reference value :  2.75022e-06
 Reference value :  2.75032e-06
 Reference value :  2.75070e-06
 Reference value :  2.75106e-06
 Reference value :  2.75153e-06
 Reference value :  2.75204e-06
 Reference value :  2.75256e-06
 Reference value :  2.75328e-06
 Reference value :  2.75405e-06
 Reference value :  2.75470e-06
 Reference value :  2.75539e-06
 Reference value :  2.75609e-06
 Reference value :  2.75696e-06
 Reference value :  2.75786e-06
 Reference value :  2.75964e-06
 Reference value :  2.76190e-06
 Reference value :  2.77124e-06
 Reference value :  2.79950e-06
 Reference value :  2.88617e-06
 Reference value :  3.00000e-06
 Reference value :  3.00001e-06
 Reference value :  3.00007e-06
 Reference value :  3.00010e-06
 Reference value :  3.00011e-06
 Reference value :  3.00016e-06
 Reference value :  3.00022e-06
 Reference value :  3.00035e-06
 Reference value :  3.00086e-06
 Reference value :  3.00130e-06
 Reference value :  3.00176e-06
 Reference value :  3.00224e-06
 Reference value :  3.00276e-06
 Reference value :  3.00341e-06
 Reference value :  3.00403e-06
 Reference value :  3.00458e-06
 Reference value :  3.00520e-06
 Reference value :  3.00582e-06
 Reference value :  3.00643e-06
 Reference value :  3.00711e-06
 Reference value :  3.00900e-06
 Reference value :  3.01062e-06
 Reference value :  3.01256e-06
 Reference value :  3.01402e-06
 Reference value :  3.01536e-06
 Reference value :  3.01669e-06
 Reference value :  3.01796e-06
 Reference value :  3.01907e-06
 Reference value :  3.02028e-06
 Reference value :  3.02158e-06
 Reference value :  3.02337e-06
 Reference value :  3.02852e-06
 Reference value :  3.03399e-06
 Reference value :  3.04241e-06
 Reference value :  3.08260e-06
 Reference value :  3.13036e-06
 Reference value :  3.18775e-06
 Reference value :  3.21446e-06
 Reference value :  3.25011e-06
 Reference value :  3.25017e-06
 Reference value :  3.25020e-06
 Reference value :  3.25021e-06
 Reference value :  3.25022e-06
 Reference value :  3.25026e-06
 Reference value :  3.25032e-06
 Reference value :  3.25045e-06
 Reference value :  3.25070e-06
 Reference value :  3.25106e-06
 Reference value :  3.25153e-06
 Reference value :  3.25203e-06
 Reference value :  3.25256e-06
 Reference value :  3.25328e-06
 Reference value :  3.25405e-06
 Reference value :  3.25469e-06
 Reference value :  3.25539e-06
 Reference value :  3.25606e-06
 Reference value :  3.25700e-06
 Reference value :  3.25797e-06
 Reference value :  3.25971e-06
 Reference value :  3.26553e-06
 Reference value :  3.28242e-06
 Reference value :  3.33275e-06
 Reference value :  3.48466e-06
 Reference value :  3.50000e-06
 Reference value :  3.50003e-06
 Reference value :  3.50010e-06
 Reference value :  3.50012e-06
 Reference value :  3.50022e-06
 Reference value :  3.50052e-06
 Reference value :  3.50086e-06
 Reference value :  3.50130e-06
 Reference value :  3.50176e-06
 Reference value :  3.50224e-06
 Reference value :  3.50277e-06
 Reference value :  3.50399e-06
 Reference value :  3.50463e-06
 Reference value :  3.50533e-06
 Reference value :  3.50629e-06
 Reference value :  3.50730e-06
 Reference value :  3.50827e-06
 Reference value :  3.50926e-06
 Reference value :  3.51020e-06
 Reference value :  3.51123e-06
 Reference value :  3.51237e-06
 Reference value :  3.51364e-06
 Reference value :  3.52124e-06
 Reference value :  3.55038e-06
 Reference value :  3.66691e-06
 Reference value :  3.75011e-06
 Reference value :  3.75017e-06
 Reference value :  3.75020e-06
 Reference value :  3.75022e-06
 Reference value :  3.75032e-06
 Reference value :  3.75045e-06
 Reference value :  3.75106e-06
 Reference value :  3.75153e-06
 Reference value :  3.75203e-06
 Reference value :  3.75256e-06
 Reference value :  3.75405e-06
 Reference value :  3.75469e-06
 Reference value :  3.75538e-06
 Reference value :  3.75609e-06
 Reference value :  3.75695e-06
 Reference value :  3.75963e-06
 Reference value :  3.76536e-06
 Reference value :  3.77120e-06
 Reference value :  3.78183e-06
 Reference value :  3.83090e-06
 Reference value :  3.88537e-06
 Reference value :  4.00000e-06
 Reference value :  4.00001e-06
 Reference value :  4.00007e-06
 Reference value :  4.00011e-06
 Reference value :  4.00016e-06
 Reference value :  4.00035e-06
 Reference value :  4.00052e-06
 Reference value :  4.00086e-06
 Reference value :  4.00130e-06
 Reference value :  4.00176e-06
 Reference value :  4.00224e-06
 Reference value :  4.00276e-06
 Reference value :  4.00340e-06
 Reference value :  4.00403e-06
 Reference value :  4.00458e-06
 Reference value :  4.00520e-06
 Reference value :  4.00582e-06
 Reference value :  4.00643e-06
 Reference value :  4.00801e-06
 Reference value :  4.00901e-06
 Reference value :  4.01062e-06
 Reference value :  4.01256e-06
 Reference value :  4.01402e-06
 Reference value :  4.01536e-06
 Reference value :  4.01669e-06
 Reference value :  4.01795e-06
 Reference value :  4.01907e-06
 Reference value :  4.02028e-06
 Reference value :  4.02158e-06
 Reference value :  4.02337e-06
 Reference value :  4.02527e-06
 Reference value :  4.02851e-06
 Reference value :  4.03398e-06
 Reference value :  4.04240e-06
 Reference value :  4.05131e-06
 Reference value :  4.05812e-06
 Reference value :  4.06512e-06
 Reference value :  4.07264e-06
 Reference value :  4.08081e-06
 Reference value :  4.09089e-06
 Reference value :  4.10051e-06
 Reference value :  4.11127e-06
 Reference value :  4.11755e-06
 Reference value :  4.12365e-06
 Reference value :  4.12993e-06
 Reference value :  4.13642e-06
 Reference value :  4.15695e-06
 Reference value :  4.19810e-06
 Reference value :  4.23529e-06
 Reference value :  4.25010e-06
 Reference value :  4.25011e-06
 Reference value :  4.25013e-06
 Reference value :  4.25017e-06
 Reference value :  4.25020e-06
 Reference value :  4.25021e-06
 Reference value :  4.25026e-06
 Reference value :  4.25032e-06
 Reference value :  4.25045e-06
 Reference value :  4.25070e-06
 Reference value :  4.25106e-06
 Reference value :  4.25153e-06
 Reference value :  4.25203e-06
 Reference value :  4.25256e-06
 Reference value :  4.25328e-06
 Reference value :  4.25406e-06
 Reference value :  4.25469e-06
 Reference value :  4.25538e-06
 Reference value :  4.25605e-06
 Reference value :  4.25695e-06
 Reference value :  4.25963e-06
 Reference value :  4.26535e-06
 Reference value :  4.27136e-06
 Reference value :  4.29974e-06
 Reference value :  4.33172e-06
 Reference value :  4.38680e-06
 Reference value :  4.48371e-06
 Reference value :  4.50001e-06
 Reference value :  4.50003e-06
 Reference value :  4.50007e-06
 Reference value :  4.50010e-06
 Reference value :  4.50011e-06
 Reference value :  4.50016e-06
 Reference value :  4.50035e-06
 Reference value :  4.50052e-06
 Reference value :  4.50086e-06
 Reference value :  4.50130e-06
 Reference value :  4.50176e-06
 Reference value :  4.50224e-06
 Reference value :  4.50277e-06
 Reference value :  4.50340e-06
 Reference value :  4.50399e-06
 Reference value :  4.50463e-06
 Reference value :  4.50533e-06
 Reference value :  4.50629e-06
 Reference value :  4.50730e-06
 Reference value :  4.50827e-06
 Reference value :  4.50926e-06
 Reference value :  4.51021e-06
 Reference value :  4.51124e-06
 Reference value :  4.51238e-06
 Reference value :  4.51619e-06
 Reference value :  4.53097e-06
 Reference value :  4.55040e-06
 Reference value :  4.58924e-06
 Reference value :  4.75010e-06
 Reference value :  4.75013e-06
 Reference value :  4.75017e-06
 Reference value :  4.75020e-06
 Reference value :  4.75021e-06
 Reference value :  4.75026e-06
 Reference value :  4.75032e-06
 Reference value :  4.75045e-06
 Reference value :  4.75070e-06
 Reference value :  4.75106e-06
 Reference value :  4.75153e-06
 Reference value :  4.75203e-06
 Reference value :  4.75256e-06
 Reference value :  4.75328e-06
 Reference value :  4.75405e-06
 Reference value :  4.75469e-06
 Reference value :  4.75538e-06
 Reference value :  4.75609e-06
 Reference value :  4.75695e-06
 Reference value :  4.75963e-06
 Reference value :  4.76537e-06
 Reference value :  4.78182e-06
 Reference value :  4.79928e-06
 Reference value :  4.88496e-06
 Reference value :  5.00000e-06
 Reference value :  5.00003e-06
 Reference value :  5.00007e-06
 Reference value :  5.00010e-06
 Reference value :  5.00012e-06
 Reference value :  5.00016e-06
 Reference value :  5.00022e-06
 Reference value :  5.00052e-06
 Reference value :  5.00086e-06
 Reference value :  5.00130e-06
 Reference value :  5.00176e-06
 Reference value :  5.00224e-06
 Reference value :  5.00276e-06
 Reference value :  5.00340e-06
 Reference value :  5.00403e-06
 Reference value :  5.00458e-06
 Reference value :  5.00520e-06
 Reference value :  5.00582e-06
 Reference value :  5.00643e-06
 Reference value :  5.00801e-06
 Reference value :  5.00901e-06
 Reference value :  5.01256e-06
 Reference value :  5.01402e-06
 Reference value :  5.01536e-06
 Reference value :  5.01668e-06
 Reference value :  5.01795e-06
 Reference value :  5.01906e-06
 Reference value :  5.02027e-06
 Reference value :  5.02157e-06
 Reference value :  5.02526e-06
 Reference value :  5.02849e-06
 Reference value :  5.03958e-06
 Reference value :  5.04368e-06
 Reference value :  5.05236e-06
 Reference value :  5.05730e-06
 Reference value :  5.06273e-06
 Reference value :  5.07443e-06
 Reference value :  5.08279e-06
 Reference value :  5.10323e-06
 Reference value :  5.11707e-06
 Reference value :  5.12941e-06
 Reference value :  5.14122e-06
 Reference value :  5.14944e-06
 Reference value :  5.15946e-06
 Reference value :  5.17951e-06
 Reference value :  5.23407e-06
 Reference value :  5.25010e-06
 Reference value :  5.25011e-06
 Reference value :  5.25013e-06
 Reference value :  5.25017e-06
 Reference value :  5.25021e-06
 Reference value :  5.25026e-06
 Reference value :  5.25045e-06
 Reference value :  5.25070e-06
 Reference value :  5.25105e-06
 Reference value :  5.25152e-06
 Reference value :  5.25202e-06
 Reference value :  5.25254e-06
 Reference value :  5.25326e-06
 Reference value :  5.25405e-06
 Reference value :  5.25465e-06
 Reference value :  5.25533e-06
 Reference value :  5.25599e-06
 Reference value :  5.25685e-06
 Reference value :  5.25775e-06
 Reference value :  5.25948e-06
 Reference value :  5.26499e-06
 Reference value :  5.27046e-06
 Reference value :  5.29839e-06
 Reference value :  5.38733e-06
 Reference value :  5.50001e-06
 Reference value :  5.50003e-06
 Reference value :  5.50010e-06
 Reference value :  5.50012e-06
 Reference value :  5.50022e-06
 Reference value :  5.50035e-06
 Reference value :  5.50086e-06
 Reference value :  5.50130e-06
 Reference value :  5.50176e-06
 Reference value :  5.50224e-06
 Reference value :  5.50277e-06
 Reference value :  5.50340e-06
 Reference value :  5.50400e-06
 Reference value :  5.50464e-06
 Reference value :  5.50533e-06
 Reference value :  5.50629e-06
 Reference value :  5.50730e-06
 Reference value :  5.50827e-06
 Reference value :  5.50926e-06
 Reference value :  5.51020e-06
 Reference value :  5.51124e-06
 Reference value :  5.51238e-06
 Reference value :  5.51617e-06
 Reference value :  5.53095e-06
 Reference value :  5.55037e-06
 Reference value :  5.58922e-06
 Reference value :  5.75010e-06
 Reference value :  5.75011e-06
 Reference value :  5.75013e-06
 Reference value :  5.75017e-06
 Reference value :  5.75020e-06
 Reference value :  5.75022e-06
 Reference value :  5.75026e-06
 Reference value :  5.75045e-06
 Reference value :  5.75070e-06
 Reference value :  5.75105e-06
 Reference value :  5.75153e-06
 Reference value :  5.75203e-06
 Reference value :  5.75256e-06
 Reference value :  5.75328e-06
 Reference value :  5.75405e-06
 Reference value :  5.75468e-06
 Reference value :  5.75538e-06
 Reference value :  5.75608e-06
 Reference value :  5.75695e-06
 Reference value :  5.75786e-06
 Reference value :  5.75963e-06
 Reference value :  5.76189e-06
 Reference value :  5.77120e-06
 Reference value :  5.78179e-06
 Reference value :  5.83057e-06
 Reference value :  5.88458e-06
 Reference value :  6.00000e-06
 Reference value :  6.00001e-06
 Reference value :  6.00003e-06
 Reference value :  6.00007e-06
 Reference value :  6.00010e-06
 Reference value :  6.00012e-06
 Reference value :  6.00022e-06
 Reference value :  6.00035e-06
 Reference value :  6.00052e-06
 Reference value :  6.00086e-06
 Reference value :  6.00130e-06
 Reference value :  6.00176e-06
 Reference value :  6.00224e-06
 Reference value :  6.00276e-06
 Reference value :  6.00340e-06
 Reference value :  6.00403e-06
 Reference value :  6.00458e-06
 Reference value :  6.00520e-06
 Reference value :  6.00582e-06
 Reference value :  6.00643e-06
 Reference value :  6.00801e-06
 Reference value :  6.00901e-06
 Reference value :  6.01256e-06
 Reference value :  6.01402e-06
 Reference value :  6.01536e-06
 Reference value :  6.01668e-06
 Reference value :  6.01794e-06
 Reference value :  6.01905e-06
 Reference value :  6.02027e-06
 Reference value :  6.02157e-06
 Reference value :  6.02335e-06
 Reference value :  6.02525e-06
 Reference value :  6.02848e-06
 Reference value :  6.03394e-06
 Reference value :  6.03714e-06
 Reference value :  6.04026e-06
 Reference value :  6.04349e-06
 Reference value :  6.04683e-06
 Reference value :  6.05044e-06
 Reference value :  6.05614e-06
 Reference value :  6.06213e-06
 Reference value :  6.06907e-06
 Reference value :  6.08892e-06
 Reference value :  6.10919e-06
 Reference value :  6.13703e-06
 Reference value :  6.16096e-06
 Reference value :  6.17635e-06
 Reference value :  6.19327e-06
 Reference value :  6.21025e-06
 Reference value :  6.25010e-06
 Reference value :  6.25013e-06
 Reference value :  6.25020e-06
 Reference value :  6.25022e-06
 Reference value :  6.25032e-06
 Reference value :  6.25070e-06
 Reference value :  6.25105e-06
 Reference value :  6.25152e-06
 Reference value :  6.25202e-06
 Reference value :  6.25254e-06
 Reference value :  6.25326e-06
 Reference value :  6.25405e-06
 Reference value :  6.25464e-06
 Reference value :  6.25532e-06
 Reference value :  6.25598e-06
 Reference value :  6.25684e-06
 Reference value :  6.25774e-06
 Reference value :  6.25947e-06
 Reference value :  6.26164e-06
 Reference value :  6.27040e-06
 Reference value :  6.29822e-06
 Reference value :  6.38690e-06
 Reference value :  6.50000e-06
 Reference value :  6.50001e-06
 Reference value :  6.50003e-06
 Reference value :  6.50007e-06
 Reference value :  6.50011e-06
 Reference value :  6.50012e-06
 Reference value :  6.50022e-06
 Reference value :  6.50035e-06
 Reference value :  6.50086e-06
 Reference value :  6.50130e-06
 Reference value :  6.50176e-06
 Reference value :  6.50224e-06
 Reference value :  6.50277e-06
 Reference value :  6.50340e-06
 Reference value :  6.50399e-06
 Reference value :  6.50463e-06
 Reference value :  6.50533e-06
 Reference value :  6.50629e-06
 Reference value :  6.50730e-06
 Reference value :  6.50827e-06
 Reference value :  6.50926e-06
 Reference value :  6.51020e-06
 Reference value :  6.51124e-06
 Reference value :  6.51238e-06
 Reference value :  6.51365e-06
 Reference value :  6.51618e-06
 Reference value :  6.52125e-06
 Reference value :  6.53095e-06
 Reference value :  6.55036e-06
 Reference value :  6.58917e-06
 Reference value :  6.75010e-06
 Reference value :  6.75011e-06
 Reference value :  6.75013e-06
 Reference value :  6.75017e-06
 Reference value :  6.75020e-06
 Reference value :  6.75021e-06
 Reference value :  6.75022e-06
 Reference value :  6.75026e-06
 Reference value :  6.75032e-06
 Reference value :  6.75045e-06
 Reference value :  6.75070e-06
 Reference value :  6.75105e-06
 Reference value :  6.75153e-06
 Reference value :  6.75203e-06
 Reference value :  6.75256e-06
 Reference value :  6.75328e-06
 Reference value :  6.75405e-06
 Reference value :  6.75468e-06
 Reference value :  6.75537e-06
 Reference value :  6.75608e-06
 Reference value :  6.75695e-06
 Reference value :  6.75786e-06
 Reference value :  6.75963e-06
 Reference value :  6.76188e-06
 Reference value :  6.76536e-06
 Reference value :  6.77119e-06
 Reference value :  6.78175e-06
 Reference value :  6.83035e-06
 Reference value :  6.88412e-06
 Reference value :  6.97785e-06
 Reference value :  7.00000e-06
 Reference value :  7.00001e-06
 Reference value :  7.00003e-06
 Reference value :  7.00007e-06
 Reference value :  7.00010e-06
 Reference value :  7.00011e-06
 Reference value :  7.00012e-06
 Reference value :  7.00016e-06
 Reference value :  7.00022e-06
 Reference value :  7.00035e-06
 Reference value :  7.00052e-06
 Reference value :  7.00086e-06
 Reference value :  7.00130e-06
 Reference value :  7.00176e-06
 Reference value :  7.00224e-06
 Reference value :  7.00276e-06
 Reference value :  7.00340e-06
 Reference value :  7.00403e-06
 Reference value :  7.00458e-06
 Reference value :  7.00520e-06
 Reference value :  7.00582e-06
 Reference value :  7.00643e-06
 Reference value :  7.00711e-06
 Reference value :  7.00801e-06
 Reference value :  7.00901e-06
 Reference value :  7.01062e-06
 Reference value :  7.01256e-06
 Reference value :  7.01402e-06
 Reference value :  7.01535e-06
 Reference value :  7.01667e-06
 Reference value :  7.01794e-06
 Reference value :  7.01905e-06
 Reference value :  7.02026e-06
 Reference value :  7.02156e-06
 Reference value :  7.02333e-06
 Reference value :  7.02524e-06
 Reference value :  7.02725e-06
 Reference value :  7.02940e-06
 Reference value :  7.03202e-06
 Reference value :  7.03532e-06
 Reference value :  7.03844e-06
 Reference value :  7.04130e-06
 Reference value :  7.04480e-06
 Reference value :  7.04800e-06
 Reference value :  7.05441e-06
 Reference value :  7.06340e-06
 Reference value :  7.07770e-06
 Reference value :  7.10260e-06
 Reference value :  7.14038e-06
 Reference value :  7.18473e-06
 Reference value :  7.21977e-06
 Reference value :  7.24373e-06
 Reference value :  7.25010e-06
 Reference value :  7.25011e-06
 Reference value :  7.25013e-06
 Reference value :  7.25017e-06
 Reference value :  7.25020e-06
 Reference value :  7.25021e-06
 Reference value :  7.25022e-06
 Reference value :  7.25032e-06
 Reference value :  7.25045e-06
 Reference value :  7.25070e-06
 Reference value :  7.25105e-06
 Reference value :  7.25153e-06
 Reference value :  7.25203e-06
 Reference value :  7.25256e-06
 Reference value :  7.25328e-06
 Reference value :  7.25406e-06
 Reference value :  7.25468e-06
 Reference value :  7.25537e-06
 Reference value :  7.25604e-06
 Reference value :  7.25695e-06
 Reference value :  7.25789e-06
 Reference value :  7.25962e-06
 Reference value :  7.26533e-06
 Reference value :  7.27131e-06
 Reference value :  7.29942e-06
 Reference value :  7.33097e-06
 Reference value :  7.36701e-06
 Reference value :  7.47801e-06
 Reference value :  7.50001e-06
 Reference value :  7.50003e-06
 Reference value :  7.50010e-06
 Reference value :  7.50011e-06
 Reference value :  7.50012e-06
 Reference value :  7.50022e-06
 Reference value :  7.50052e-06
 Reference value :  7.50086e-06
 Reference value :  7.50130e-06
 Reference value :  7.50176e-06
 Reference value :  7.50224e-06
 Reference value :  7.50277e-06
 Reference value :  7.50340e-06
 Reference value :  7.50400e-06
 Reference value :  7.50464e-06
 Reference value :  7.50533e-06
 Reference value :  7.50629e-06
 Reference value :  7.50730e-06
 Reference value :  7.50826e-06
 Reference value :  7.50925e-06
 Reference value :  7.51020e-06
 Reference value :  7.51123e-06
 Reference value :  7.51237e-06
 Reference value :  7.51616e-06
 Reference value :  7.53094e-06
 Reference value :  7.55038e-06
 Reference value :  7.66703e-06
 Reference value :  7.75011e-06
 Reference value :  7.75013e-06
 Reference value :  7.75020e-06
 Reference value :  7.75022e-06
 Reference value :  7.75026e-06
 Reference value :  7.75032e-06
 Reference value :  7.75045e-06
 Reference value :  7.75070e-06
 Reference value :  7.75105e-06
 Reference value :  7.75153e-06
 Reference value :  7.75203e-06
 Reference value :  7.75256e-06
 Reference value :  7.75328e-06
 Reference value :  7.75405e-06
 Reference value :  7.75468e-06
 Reference value :  7.75537e-06
 Reference value :  7.75608e-06
 Reference value :  7.75792e-06
 Reference value :  7.76196e-06
 Reference value :  7.76550e-06
 Reference value :  7.77150e-06
 Reference value :  7.78210e-06
 Reference value :  7.79977e-06
 Reference value :  7.83113e-06
 Reference value :  7.88502e-06
 Reference value :  7.97879e-06
 Reference value :  8.00001e-06
 Reference value :  8.00003e-06
 Reference value :  8.00007e-06
 Reference value :  8.00010e-06
 Reference value :  8.00011e-06
 Reference value :  8.00012e-06
 Reference value :  8.00016e-06
 Reference value :  8.00022e-06
 Reference value :  8.00035e-06
 Reference value :  8.00052e-06
 Reference value :  8.00086e-06
 Reference value :  8.00130e-06
 Reference value :  8.00176e-06
 Reference value :  8.00224e-06
 Reference value :  8.00277e-06
 Reference value :  8.00340e-06
 Reference value :  8.00403e-06
 Reference value :  8.00458e-06
 Reference value :  8.00520e-06
 Reference value :  8.00582e-06
 Reference value :  8.00643e-06
 Reference value :  8.00801e-06
 Reference value :  8.00901e-06
 Reference value :  8.01001e-06
 Reference value :  8.01112e-06
 Reference value :  8.01448e-06
 Reference value :  8.01788e-06
 Reference value :  8.03316e-06
 Reference value :  8.08560e-06
 Reference value :  8.15553e-06
 Reference value :  8.25010e-06
 Reference value :  8.25011e-06
 Reference value :  8.25013e-06
 Reference value :  8.25017e-06
 Reference value :  8.25020e-06
 Reference value :  8.25022e-06
 Reference value :  8.25026e-06
 Reference value :  8.25032e-06
 Reference value :  8.25045e-06
 Reference value :  8.25070e-06
 Reference value :  8.25105e-06
 Reference value :  8.25152e-06
 Reference value :  8.25202e-06
 Reference value :  8.25254e-06
 Reference value :  8.25326e-06
 Reference value :  8.25421e-06
 Reference value :  8.25513e-06
 Reference value :  8.25609e-06
 Reference value :  8.25722e-06
 Reference value :  8.25854e-06
 Reference value :  8.26027e-06
 Reference value :  8.26282e-06
 Reference value :  8.27213e-06
 Reference value :  8.29392e-06
 Reference value :  8.31568e-06
 Reference value :  8.35516e-06
 Reference value :  8.43347e-06
 Reference value :  8.50000e-06
No. of Data Rows : 1238
ngspice-44 done
