
Note: Compatibility modes selected: hs a


Circuit: ** sch_path: /home/ece/cace/sar-adc-using-sky130-pdk/runs/run_2025-09-13_00-55-30/parameters/dnl/run_2/sar_output_dnl.sch

option SCALE: Scale is set to 1e-06 for instance and model parameters
option SCALE: Scale is set to 1e-06 for instance and model parameters
option SCALE: Scale is set to 1e-06 for instance and model parameters
option SCALE: Scale is set to 1e-06 for instance and model parameters
Doing analysis at TEMP = 27.000000 and TNOM = 27.000000

Using KLU as Direct Linear Solver
Operating point simulation skipped by 'uic',
  now using transient initial conditions.
 Reference value :  1.00000e-12
 Reference value :  1.07889e-12
 Reference value :  2.13665e-12
 Reference value :  6.09737e-12
 Reference value :  3.19475e-11
 Reference value :  1.04961e-10
 Reference value :  2.53806e-10
 Reference value :  9.54168e-10
 Reference value :  1.84121e-09
 Reference value :  3.19480e-09
 Reference value :  5.05018e-09
 Reference value :  6.76892e-09
 Reference value :  8.07442e-09
 Reference value :  9.62438e-09
 Reference value :  1.02858e-08
 Reference value :  1.16550e-08
 Reference value :  1.36211e-08
 Reference value :  1.95262e-08
 Reference value :  2.37067e-08
 Reference value :  3.14656e-08
 Reference value :  4.59335e-08
 Reference value :  8.06142e-08
 Reference value :  2.50100e-07
 Reference value :  2.50130e-07
 Reference value :  2.50200e-07
 Reference value :  2.50223e-07
 Reference value :  2.50311e-07
 Reference value :  2.50541e-07
 Reference value :  2.50957e-07
 Reference value :  2.51695e-07
 Reference value :  2.52677e-07
 Reference value :  2.53256e-07
 Reference value :  2.54259e-07
 Reference value :  2.55483e-07
 Reference value :  2.57473e-07
 Reference value :  2.61155e-07
 Reference value :  2.80522e-07
 Reference value :  4.03024e-07
 Reference value :  5.00030e-07
 Reference value :  5.00100e-07
 Reference value :  5.00156e-07
 Reference value :  5.00516e-07
 Reference value :  5.01187e-07
 Reference value :  5.02011e-07
 Reference value :  5.02907e-07
 Reference value :  5.04757e-07
 Reference value :  5.06612e-07
 Reference value :  5.09008e-07
 Reference value :  5.11637e-07
 Reference value :  5.14501e-07
 Reference value :  5.28208e-07
 Reference value :  6.34107e-07
 Reference value :  7.50110e-07
 Reference value :  7.50200e-07
 Reference value :  7.50320e-07
 Reference value :  7.50986e-07
 Reference value :  7.51862e-07
 Reference value :  7.52994e-07
 Reference value :  7.53976e-07
 Reference value :  7.55035e-07
 Reference value :  7.56554e-07
 Reference value :  7.69352e-07
 Reference value :  1.00000e-06
 Reference value :  1.00010e-06
 Reference value :  1.00016e-06
 Reference value :  1.00052e-06
 Reference value :  1.00119e-06
 Reference value :  1.00201e-06
 Reference value :  1.00289e-06
 Reference value :  1.00396e-06
 Reference value :  1.00500e-06
 Reference value :  1.00709e-06
 Reference value :  1.00996e-06
 Reference value :  1.01119e-06
 Reference value :  1.01223e-06
 Reference value :  1.01429e-06
 Reference value :  1.01525e-06
 Reference value :  1.01739e-06
 Reference value :  1.03638e-06
 Reference value :  1.19283e-06
 Reference value :  1.25017e-06
 Reference value :  1.25026e-06
 Reference value :  1.25069e-06
 Reference value :  1.25140e-06
 Reference value :  1.25300e-06
 Reference value :  1.25399e-06
 Reference value :  1.25532e-06
 Reference value :  1.25914e-06
 Reference value :  1.28970e-06
 Reference value :  1.50001e-06
 Reference value :  1.50010e-06
 Reference value :  1.50016e-06
 Reference value :  1.50083e-06
 Reference value :  1.50158e-06
 Reference value :  1.50289e-06
 Reference value :  1.50399e-06
 Reference value :  1.50552e-06
 Reference value :  1.50616e-06
 Reference value :  1.50771e-06
 Reference value :  1.50956e-06
 Reference value :  1.51555e-06
 Reference value :  1.58397e-06
 Reference value :  1.75013e-06
 Reference value :  1.75020e-06
 Reference value :  1.75026e-06
 Reference value :  1.75045e-06
 Reference value :  1.75098e-06
 Reference value :  1.75186e-06
 Reference value :  1.75299e-06
 Reference value :  1.75345e-06
 Reference value :  1.75449e-06
 Reference value :  1.75580e-06
 Reference value :  1.77002e-06
 Reference value :  2.00000e-06
 Reference value :  2.00010e-06
 Reference value :  2.00022e-06
 Reference value :  2.00083e-06
 Reference value :  2.00158e-06
 Reference value :  2.00289e-06
 Reference value :  2.00396e-06
 Reference value :  2.00500e-06
 Reference value :  2.00631e-06
 Reference value :  2.00846e-06
 Reference value :  2.01120e-06
 Reference value :  2.01223e-06
 Reference value :  2.01429e-06
 Reference value :  2.01525e-06
 Reference value :  2.01738e-06
 Reference value :  2.02883e-06
 Reference value :  2.04104e-06
 Reference value :  2.04749e-06
 Reference value :  2.06128e-06
 Reference value :  2.07327e-06
 Reference value :  2.09402e-06
 Reference value :  2.17260e-06
 Reference value :  2.25010e-06
 Reference value :  2.25017e-06
 Reference value :  2.25022e-06
 Reference value :  2.25045e-06
 Reference value :  2.25098e-06
 Reference value :  2.25140e-06
 Reference value :  2.25230e-06
 Reference value :  2.25344e-06
 Reference value :  2.25455e-06
 Reference value :  2.25731e-06
 Reference value :  2.26493e-06
 Reference value :  2.31350e-06
 Reference value :  2.48002e-06
 Reference value :  2.50003e-06
 Reference value :  2.50012e-06
 Reference value :  2.50034e-06
 Reference value :  2.50119e-06
 Reference value :  2.50195e-06
 Reference value :  2.50282e-06
 Reference value :  2.50464e-06
 Reference value :  2.50598e-06
 Reference value :  2.50749e-06
 Reference value :  2.50924e-06
 Reference value :  2.51366e-06
 Reference value :  2.54875e-06
 Reference value :  2.75013e-06
 Reference value :  2.75022e-06
 Reference value :  2.75069e-06
 Reference value :  2.75186e-06
 Reference value :  2.75344e-06
 Reference value :  2.75502e-06
 Reference value :  2.75752e-06
 Reference value :  2.76368e-06
 Reference value :  3.00000e-06
 Reference value :  3.00011e-06
 Reference value :  3.00052e-06
 Reference value :  3.00158e-06
 Reference value :  3.00290e-06
 Reference value :  3.00440e-06
 Reference value :  3.00534e-06
 Reference value :  3.00758e-06
 Reference value :  3.00928e-06
 Reference value :  3.01016e-06
 Reference value :  3.01192e-06
 Reference value :  3.01358e-06
 Reference value :  3.01536e-06
 Reference value :  3.01742e-06
 Reference value :  3.02443e-06
 Reference value :  3.03732e-06
 Reference value :  3.04332e-06
 Reference value :  3.04753e-06
 Reference value :  3.05488e-06
 Reference value :  3.07212e-06
 Reference value :  3.13040e-06
 Reference value :  3.25010e-06
 Reference value :  3.25017e-06
 Reference value :  3.25026e-06
 Reference value :  3.25069e-06
 Reference value :  3.25140e-06
 Reference value :  3.25229e-06
 Reference value :  3.25345e-06
 Reference value :  3.25461e-06
 Reference value :  3.25742e-06
 Reference value :  3.27245e-06
 Reference value :  3.48876e-06
 Reference value :  3.50003e-06
 Reference value :  3.50011e-06
 Reference value :  3.50022e-06
 Reference value :  3.50083e-06
 Reference value :  3.50201e-06
 Reference value :  3.50290e-06
 Reference value :  3.50399e-06
 Reference value :  3.50616e-06
 Reference value :  3.50771e-06
 Reference value :  3.51086e-06
 Reference value :  3.52064e-06
 Reference value :  3.58458e-06
 Reference value :  3.75011e-06
 Reference value :  3.75020e-06
 Reference value :  3.75032e-06
 Reference value :  3.75098e-06
 Reference value :  3.75186e-06
 Reference value :  3.75299e-06
 Reference value :  3.75397e-06
 Reference value :  3.75502e-06
 Reference value :  3.75660e-06
 Reference value :  3.76360e-06
 Reference value :  3.85721e-06
 Reference value :  4.00003e-06
 Reference value :  4.00011e-06
 Reference value :  4.00022e-06
 Reference value :  4.00083e-06
 Reference value :  4.00158e-06
 Reference value :  4.00242e-06
 Reference value :  4.00289e-06
 Reference value :  4.00396e-06
 Reference value :  4.00500e-06
 Reference value :  4.00632e-06
 Reference value :  4.00847e-06
 Reference value :  4.01120e-06
 Reference value :  4.01323e-06
 Reference value :  4.01524e-06
 Reference value :  4.01912e-06
 Reference value :  4.03413e-06
 Reference value :  4.04481e-06
 Reference value :  4.06257e-06
 Reference value :  4.10243e-06
 Reference value :  4.21727e-06
 Reference value :  4.25017e-06
 Reference value :  4.25026e-06
 Reference value :  4.25098e-06
 Reference value :  4.25229e-06
 Reference value :  4.25343e-06
 Reference value :  4.25595e-06
 Reference value :  4.28575e-06
 Reference value :  4.50003e-06
 Reference value :  4.50016e-06
 Reference value :  4.50083e-06
 Reference value :  4.50154e-06
 Reference value :  4.50282e-06
 Reference value :  4.50464e-06
 Reference value :  4.50598e-06
 Reference value :  4.50749e-06
 Reference value :  4.51028e-06
 Reference value :  4.52228e-06
 Reference value :  4.64494e-06
 Reference value :  4.75011e-06
 Reference value :  4.75017e-06
 Reference value :  4.75021e-06
 Reference value :  4.75032e-06
 Reference value :  4.75098e-06
 Reference value :  4.75186e-06
 Reference value :  4.75344e-06
 Reference value :  4.75448e-06
 Reference value :  4.75579e-06
 Reference value :  4.75751e-06
 Reference value :  4.75964e-06
 Reference value :  4.76740e-06
 Reference value :  4.87984e-06
 Reference value :  5.00003e-06
 Reference value :  5.00010e-06
 Reference value :  5.00016e-06
 Reference value :  5.00083e-06
 Reference value :  5.00201e-06
 Reference value :  5.00342e-06
 Reference value :  5.00484e-06
 Reference value :  5.00758e-06
 Reference value :  5.00928e-06
 Reference value :  5.01111e-06
 Reference value :  5.01355e-06
 Reference value :  5.01630e-06
 Reference value :  5.01865e-06
 Reference value :  5.02140e-06
 Reference value :  5.02549e-06
 Reference value :  5.04198e-06
 Reference value :  5.07167e-06
 Reference value :  5.25010e-06
 Reference value :  5.25017e-06
 Reference value :  5.25022e-06
 Reference value :  5.25045e-06
 Reference value :  5.25140e-06
 Reference value :  5.25299e-06
 Reference value :  5.25398e-06
 Reference value :  5.25523e-06
 Reference value :  5.25888e-06
 Reference value :  5.28669e-06
 Reference value :  5.50000e-06
 Reference value :  5.50007e-06
 Reference value :  5.50012e-06
 Reference value :  5.50034e-06
 Reference value :  5.50083e-06
 Reference value :  5.50158e-06
 Reference value :  5.50242e-06
 Reference value :  5.50342e-06
 Reference value :  5.50552e-06
 Reference value :  5.50689e-06
 Reference value :  5.50865e-06
 Reference value :  5.52053e-06
 Reference value :  5.75010e-06
 Reference value :  5.75020e-06
 Reference value :  5.75045e-06
 Reference value :  5.75140e-06
 Reference value :  5.75299e-06
 Reference value :  5.75397e-06
 Reference value :  5.75579e-06
 Reference value :  5.80713e-06
 Reference value :  6.00007e-06
 Reference value :  6.00022e-06
 Reference value :  6.00119e-06
 Reference value :  6.00242e-06
 Reference value :  6.00396e-06
 Reference value :  6.00500e-06
 Reference value :  6.00709e-06
 Reference value :  6.00997e-06
 Reference value :  6.01120e-06
 Reference value :  6.01223e-06
 Reference value :  6.01428e-06
 Reference value :  6.01524e-06
 Reference value :  6.01737e-06
 Reference value :  6.02073e-06
 Reference value :  6.03215e-06
 Reference value :  6.04041e-06
 Reference value :  6.04786e-06
 Reference value :  6.08909e-06
 Reference value :  6.12397e-06
 Reference value :  6.14855e-06
 Reference value :  6.20563e-06
 Reference value :  6.25013e-06
 Reference value :  6.25022e-06
 Reference value :  6.25069e-06
 Reference value :  6.25186e-06
 Reference value :  6.25345e-06
 Reference value :  6.25523e-06
 Reference value :  6.26161e-06
 Reference value :  6.31517e-06
 Reference value :  6.50001e-06
 Reference value :  6.50010e-06
 Reference value :  6.50012e-06
 Reference value :  6.50022e-06
 Reference value :  6.50052e-06
 Reference value :  6.50119e-06
 Reference value :  6.50201e-06
 Reference value :  6.50290e-06
 Reference value :  6.50399e-06
 Reference value :  6.50552e-06
 Reference value :  6.50689e-06
 Reference value :  6.50865e-06
 Reference value :  6.51247e-06
 Reference value :  6.54676e-06
 Reference value :  6.75011e-06
 Reference value :  6.75020e-06
 Reference value :  6.75032e-06
 Reference value :  6.75098e-06
 Reference value :  6.75186e-06
 Reference value :  6.75344e-06
 Reference value :  6.75448e-06
 Reference value :  6.75579e-06
 Reference value :  6.76361e-06
 Reference value :  6.85755e-06
 Reference value :  7.00003e-06
 Reference value :  7.00011e-06
 Reference value :  7.00022e-06
 Reference value :  7.00083e-06
 Reference value :  7.00158e-06
 Reference value :  7.00289e-06
 Reference value :  7.00450e-06
 Reference value :  7.00554e-06
 Reference value :  7.00996e-06
 Reference value :  7.01223e-06
 Reference value :  7.01524e-06
 Reference value :  7.02074e-06
 Reference value :  7.03699e-06
 Reference value :  7.04409e-06
 Reference value :  7.06532e-06
 Reference value :  7.15767e-06
 Reference value :  7.19505e-06
 Reference value :  7.25011e-06
 Reference value :  7.25021e-06
 Reference value :  7.25045e-06
 Reference value :  7.25140e-06
 Reference value :  7.25299e-06
 Reference value :  7.25398e-06
 Reference value :  7.25607e-06
 Reference value :  7.26188e-06
 Reference value :  7.28912e-06
 Reference value :  7.39271e-06
 Reference value :  7.50001e-06
 Reference value :  7.50010e-06
 Reference value :  7.50016e-06
 Reference value :  7.50052e-06
 Reference value :  7.50119e-06
 Reference value :  7.50201e-06
 Reference value :  7.50290e-06
 Reference value :  7.50399e-06
 Reference value :  7.50553e-06
 Reference value :  7.50616e-06
 Reference value :  7.50771e-06
 Reference value :  7.51086e-06
 Reference value :  7.52053e-06
 Reference value :  7.65412e-06
 Reference value :  7.75013e-06
 Reference value :  7.75021e-06
 Reference value :  7.75045e-06
 Reference value :  7.75098e-06
 Reference value :  7.75139e-06
 Reference value :  7.75229e-06
 Reference value :  7.75344e-06
 Reference value :  7.75448e-06
 Reference value :  7.75579e-06
 Reference value :  7.76359e-06
 Reference value :  7.95720e-06
 Reference value :  8.00007e-06
 Reference value :  8.00016e-06
 Reference value :  8.00083e-06
 Reference value :  8.00201e-06
 Reference value :  8.00341e-06
 Reference value :  8.00503e-06
 Reference value :  8.00717e-06
 Reference value :  8.00885e-06
 Reference value :  8.02264e-06
 Reference value :  8.23268e-06
 Reference value :  8.25013e-06
 Reference value :  8.25021e-06
 Reference value :  8.25045e-06
 Reference value :  8.25099e-06
 Reference value :  8.25186e-06
 Reference value :  8.25298e-06
 Reference value :  8.25452e-06
 Reference value :  8.25623e-06
 Reference value :  8.25919e-06
 Reference value :  8.27493e-06
 Reference value :  8.38214e-06
 Reference value :  8.50000e-06
 Reference value :  8.50000e-06
 Reference value :  8.50000e-06
 Reference value :  8.50001e-06
 Reference value :  8.50008e-06
 Reference value :  8.50011e-06
 Reference value :  8.50018e-06
 Reference value :  8.50068e-06
 Reference value :  8.50158e-06
 Reference value :  8.50243e-06
 Reference value :  8.50292e-06
 Reference value :  8.50401e-06
 Reference value :  8.50446e-06
 Reference value :  8.50554e-06
 Reference value :  8.50901e-06
 Reference value :  8.52239e-06
 Reference value :  8.52626e-06
 Reference value :  8.52916e-06
 Reference value :  8.53175e-06
 Reference value :  8.53581e-06
 Reference value :  8.53981e-06
 Reference value :  8.54886e-06
 Reference value :  8.56621e-06
 Reference value :  8.61877e-06
 Reference value :  8.75010e-06
 Reference value :  8.75017e-06
 Reference value :  8.75022e-06
 Reference value :  8.75045e-06
 Reference value :  8.75098e-06
 Reference value :  8.75185e-06
 Reference value :  8.75297e-06
 Reference value :  8.75394e-06
 Reference value :  8.75517e-06
 Reference value :  8.75873e-06
 Reference value :  8.78496e-06
 Reference value :  8.97291e-06
 Reference value :  9.00003e-06
 Reference value :  9.00010e-06
 Reference value :  9.00012e-06
 Reference value :  9.00034e-06
 Reference value :  9.00083e-06
 Reference value :  9.00157e-06
 Reference value :  9.00240e-06
 Reference value :  9.00287e-06
 Reference value :  9.00340e-06
 Reference value :  9.00470e-06
 Reference value :  9.00653e-06
 Reference value :  9.00886e-06
 Reference value :  9.01134e-06
 Reference value :  9.01256e-06
 Reference value :  9.01562e-06
 Reference value :  9.03419e-06
 Reference value :  9.14508e-06
 Reference value :  9.25013e-06
 Reference value :  9.25021e-06
 Reference value :  9.25032e-06
 Reference value :  9.25098e-06
 Reference value :  9.25139e-06
 Reference value :  9.25229e-06
 Reference value :  9.25343e-06
 Reference value :  9.25446e-06
 Reference value :  9.25578e-06
 Reference value :  9.26025e-06
 Reference value :  9.28220e-06
 Reference value :  9.45647e-06
 Reference value :  9.50003e-06
 Reference value :  9.50011e-06
 Reference value :  9.50022e-06
 Reference value :  9.50083e-06
 Reference value :  9.50200e-06
 Reference value :  9.50288e-06
 Reference value :  9.50395e-06
 Reference value :  9.50497e-06
 Reference value :  9.50623e-06
 Reference value :  9.50989e-06
 Reference value :  9.51219e-06
 Reference value :  9.51529e-06
 Reference value :  9.51908e-06
 Reference value :  9.53601e-06
 Reference value :  9.68699e-06
 Reference value :  9.75017e-06
 Reference value :  9.75022e-06
 Reference value :  9.75069e-06
 Reference value :  9.75140e-06
 Reference value :  9.75299e-06
 Reference value :  9.75397e-06
 Reference value :  9.75528e-06
 Reference value :  9.75750e-06
 Reference value :  9.76552e-06
 Reference value :  9.81761e-06
 Reference value :  1.00000e-05
 Reference value :  1.00001e-05
 Reference value :  1.00001e-05
 Reference value :  1.00002e-05
 Reference value :  1.00005e-05
 Reference value :  1.00008e-05
 Reference value :  1.00016e-05
 Reference value :  1.00024e-05
 Reference value :  1.00029e-05
 Reference value :  1.00040e-05
 Reference value :  1.00055e-05
 Reference value :  1.00061e-05
 Reference value :  1.00077e-05
 Reference value :  1.00107e-05
 Reference value :  1.00184e-05
 Reference value :  1.00595e-05
 Reference value :  1.02501e-05
 Reference value :  1.02502e-05
 Reference value :  1.02503e-05
 Reference value :  1.02510e-05
 Reference value :  1.02514e-05
 Reference value :  1.02523e-05
 Reference value :  1.02534e-05
 Reference value :  1.02545e-05
 Reference value :  1.02558e-05
 Reference value :  1.02603e-05
 Reference value :  1.03069e-05
 Reference value :  1.05000e-05
 Reference value :  1.05001e-05
 Reference value :  1.05001e-05
 Reference value :  1.05003e-05
 Reference value :  1.05008e-05
 Reference value :  1.05016e-05
 Reference value :  1.05024e-05
 Reference value :  1.05029e-05
 Reference value :  1.05039e-05
 Reference value :  1.05050e-05
 Reference value :  1.05062e-05
 Reference value :  1.05083e-05
 Reference value :  1.05111e-05
 Reference value :  1.05122e-05
 Reference value :  1.05143e-05
 Reference value :  1.05153e-05
 Reference value :  1.05175e-05
 Reference value :  1.05191e-05
 Reference value :  1.05289e-05
 Reference value :  1.05409e-05
 Reference value :  1.05473e-05
 Reference value :  1.05600e-05
 Reference value :  1.05715e-05
 Reference value :  1.06170e-05
 Reference value :  1.07501e-05
 Reference value :  1.07502e-05
 Reference value :  1.07507e-05
 Reference value :  1.07519e-05
 Reference value :  1.07534e-05
 Reference value :  1.07559e-05
 Reference value :  1.07849e-05
 Reference value :  1.10000e-05
 Reference value :  1.10001e-05
 Reference value :  1.10008e-05
 Reference value :  1.10019e-05
 Reference value :  1.10033e-05
 Reference value :  1.10053e-05
 Reference value :  1.10066e-05
 Reference value :  1.10083e-05
 Reference value :  1.10102e-05
 Reference value :  1.10167e-05
 Reference value :  1.10497e-05
 Reference value :  1.12501e-05
 Reference value :  1.12502e-05
 Reference value :  1.12503e-05
 Reference value :  1.12510e-05
 Reference value :  1.12519e-05
 Reference value :  1.12534e-05
 Reference value :  1.12545e-05
 Reference value :  1.12558e-05
 Reference value :  1.12583e-05
 Reference value :  1.12636e-05
 Reference value :  1.13182e-05
 Reference value :  1.15000e-05
 Reference value :  1.15001e-05
 Reference value :  1.15002e-05
 Reference value :  1.15003e-05
 Reference value :  1.15008e-05
 Reference value :  1.15016e-05
 Reference value :  1.15024e-05
 Reference value :  1.15029e-05
 Reference value :  1.15039e-05
 Reference value :  1.15048e-05
 Reference value :  1.15059e-05
 Reference value :  1.15076e-05
 Reference value :  1.15093e-05
 Reference value :  1.15102e-05
 Reference value :  1.15119e-05
 Reference value :  1.15145e-05
 Reference value :  1.15177e-05
 Reference value :  1.15322e-05
 Reference value :  1.15387e-05
 Reference value :  1.15481e-05
 Reference value :  1.15625e-05
 Reference value :  1.16398e-05
 Reference value :  1.17501e-05
 Reference value :  1.17502e-05
 Reference value :  1.17504e-05
 Reference value :  1.17514e-05
 Reference value :  1.17530e-05
 Reference value :  1.17540e-05
 Reference value :  1.17560e-05
 Reference value :  1.17616e-05
 Reference value :  1.17867e-05
 Reference value :  1.20000e-05
 Reference value :  1.20001e-05
 Reference value :  1.20002e-05
 Reference value :  1.20012e-05
 Reference value :  1.20024e-05
 Reference value :  1.20034e-05
 Reference value :  1.20055e-05
 Reference value :  1.20069e-05
 Reference value :  1.20087e-05
 Reference value :  1.20155e-05
 Reference value :  1.21536e-05
 Reference value :  1.22502e-05
 Reference value :  1.22503e-05
 Reference value :  1.22510e-05
 Reference value :  1.22523e-05
 Reference value :  1.22534e-05
 Reference value :  1.22550e-05
 Reference value :  1.22603e-05
 Reference value :  1.24558e-05
 Reference value :  1.25001e-05
 Reference value :  1.25001e-05
 Reference value :  1.25005e-05
 Reference value :  1.25016e-05
 Reference value :  1.25029e-05
 Reference value :  1.25045e-05
 Reference value :  1.25055e-05
 Reference value :  1.25085e-05
 Reference value :  1.25112e-05
 Reference value :  1.25132e-05
 Reference value :  1.25152e-05
 Reference value :  1.25191e-05
 Reference value :  1.25342e-05
 Reference value :  1.25454e-05
 Reference value :  1.25695e-05
 Reference value :  1.26268e-05
 Reference value :  1.27501e-05
 Reference value :  1.27502e-05
 Reference value :  1.27510e-05
 Reference value :  1.27530e-05
 Reference value :  1.27539e-05
 Reference value :  1.27559e-05
 Reference value :  1.27615e-05
 Reference value :  1.28134e-05
 Reference value :  1.30000e-05
 Reference value :  1.30001e-05
 Reference value :  1.30003e-05
 Reference value :  1.30015e-05
 Reference value :  1.30028e-05
 Reference value :  1.30046e-05
 Reference value :  1.30066e-05
 Reference value :  1.30084e-05
 Reference value :  1.30167e-05
 Reference value :  1.32501e-05
 Reference value :  1.32502e-05
 Reference value :  1.32504e-05
 Reference value :  1.32510e-05
 Reference value :  1.32519e-05
 Reference value :  1.32534e-05
 Reference value :  1.32550e-05
 Reference value :  1.32575e-05
 Reference value :  1.32749e-05
 Reference value :  1.35000e-05
 Reference value :  1.35002e-05
 Reference value :  1.35012e-05
 Reference value :  1.35020e-05
 Reference value :  1.35029e-05
 Reference value :  1.35044e-05
 Reference value :  1.35059e-05
 Reference value :  1.35076e-05
 Reference value :  1.35093e-05
 Reference value :  1.35111e-05
 Reference value :  1.35127e-05
 Reference value :  1.35145e-05
 Reference value :  1.35166e-05
 Reference value :  1.35185e-05
 Reference value :  1.35206e-05
 Reference value :  1.35257e-05
 Reference value :  1.35399e-05
 Reference value :  1.35842e-05
 Reference value :  1.37501e-05
 Reference value :  1.37502e-05
 Reference value :  1.37503e-05
 Reference value :  1.37507e-05
 Reference value :  1.37514e-05
 Reference value :  1.37523e-05
 Reference value :  1.37534e-05
 Reference value :  1.37546e-05
 Reference value :  1.37574e-05
 Reference value :  1.37652e-05
 Reference value :  1.38725e-05
 Reference value :  1.40000e-05
 Reference value :  1.40001e-05
 Reference value :  1.40002e-05
 Reference value :  1.40008e-05
 Reference value :  1.40016e-05
 Reference value :  1.40029e-05
 Reference value :  1.40040e-05
 Reference value :  1.40055e-05
 Reference value :  1.40062e-05
 Reference value :  1.40077e-05
 Reference value :  1.40096e-05
 Reference value :  1.40155e-05
 Reference value :  1.40471e-05
 Reference value :  1.42501e-05
 Reference value :  1.42502e-05
 Reference value :  1.42502e-05
 Reference value :  1.42503e-05
 Reference value :  1.42507e-05
 Reference value :  1.42514e-05
 Reference value :  1.42523e-05
 Reference value :  1.42534e-05
 Reference value :  1.42545e-05
 Reference value :  1.42558e-05
 Reference value :  1.42582e-05
 Reference value :  1.42697e-05
 Reference value :  1.43564e-05
 Reference value :  1.45000e-05
 Reference value :  1.45001e-05
 Reference value :  1.45002e-05
 Reference value :  1.45005e-05
 Reference value :  1.45012e-05
 Reference value :  1.45016e-05
 Reference value :  1.45024e-05
 Reference value :  1.45034e-05
 Reference value :  1.45050e-05
 Reference value :  1.45071e-05
 Reference value :  1.45112e-05
 Reference value :  1.45143e-05
 Reference value :  1.45174e-05
 Reference value :  1.45279e-05
 Reference value :  1.45403e-05
 Reference value :  1.45573e-05
 Reference value :  1.45811e-05
 Reference value :  1.45951e-05
 Reference value :  1.46091e-05
 Reference value :  1.46264e-05
 Reference value :  1.46884e-05
 Reference value :  1.47501e-05
 Reference value :  1.47502e-05
 Reference value :  1.47502e-05
 Reference value :  1.47503e-05
 Reference value :  1.47507e-05
 Reference value :  1.47514e-05
 Reference value :  1.47523e-05
 Reference value :  1.47530e-05
 Reference value :  1.47535e-05
 Reference value :  1.47546e-05
 Reference value :  1.47574e-05
 Reference value :  1.47652e-05
 Reference value :  1.48153e-05
 Reference value :  1.50000e-05
 Reference value :  1.50001e-05
 Reference value :  1.50001e-05
 Reference value :  1.50002e-05
 Reference value :  1.50005e-05
 Reference value :  1.50012e-05
 Reference value :  1.50020e-05
 Reference value :  1.50029e-05
 Reference value :  1.50040e-05
 Reference value :  1.50055e-05
 Reference value :  1.50062e-05
 Reference value :  1.50077e-05
 Reference value :  1.50109e-05
 Reference value :  1.50295e-05
 Reference value :  1.52501e-05
 Reference value :  1.52502e-05
 Reference value :  1.52502e-05
 Reference value :  1.52504e-05
 Reference value :  1.52514e-05
 Reference value :  1.52530e-05
 Reference value :  1.52540e-05
 Reference value :  1.52550e-05
 Reference value :  1.52566e-05
 Reference value :  1.52636e-05
 Reference value :  1.53572e-05
 Reference value :  1.55007e-05
 Reference value :  1.55029e-05
 Reference value :  1.55043e-05
 Reference value :  1.55061e-05
 Reference value :  1.55093e-05
 Reference value :  1.55120e-05
 Reference value :  1.55139e-05
 Reference value :  1.55174e-05
 Reference value :  1.55251e-05
 Reference value :  1.55442e-05
 Reference value :  1.55821e-05
 Reference value :  1.56394e-05
 Reference value :  1.56920e-05
 Reference value :  1.57501e-05
 Reference value :  1.57502e-05
 Reference value :  1.57503e-05
 Reference value :  1.57507e-05
 Reference value :  1.57514e-05
 Reference value :  1.57529e-05
 Reference value :  1.57539e-05
 Reference value :  1.57551e-05
 Reference value :  1.57585e-05
 Reference value :  1.57830e-05
 Reference value :  1.60000e-05
 Reference value :  1.60001e-05
 Reference value :  1.60001e-05
 Reference value :  1.60003e-05
 Reference value :  1.60012e-05
 Reference value :  1.60020e-05
 Reference value :  1.60029e-05
 Reference value :  1.60040e-05
 Reference value :  1.60055e-05
 Reference value :  1.60062e-05
 Reference value :  1.60077e-05
 Reference value :  1.60095e-05
 Reference value :  1.60154e-05
 Reference value :  1.60457e-05
 Reference value :  1.62501e-05
 Reference value :  1.62502e-05
 Reference value :  1.62502e-05
 Reference value :  1.62504e-05
 Reference value :  1.62514e-05
 Reference value :  1.62530e-05
 Reference value :  1.62534e-05
 Reference value :  1.62545e-05
 Reference value :  1.62558e-05
 Reference value :  1.62603e-05
 Reference value :  1.63077e-05
 Reference value :  1.65000e-05
 Reference value :  1.65001e-05
 Reference value :  1.65002e-05
 Reference value :  1.65005e-05
 Reference value :  1.65016e-05
 Reference value :  1.65029e-05
 Reference value :  1.65040e-05
 Reference value :  1.65050e-05
 Reference value :  1.65064e-05
 Reference value :  1.65088e-05
 Reference value :  1.65226e-05
 Reference value :  1.67501e-05
 Reference value :  1.67502e-05
 Reference value :  1.67507e-05
 Reference value :  1.67514e-05
 Reference value :  1.67530e-05
 Reference value :  1.67553e-05
 Reference value :  1.67577e-05
 Reference value :  1.67749e-05
 Reference value :  1.70000e-05
 Reference value :  1.70000e-05
 Reference value :  1.70000e-05
 Reference value :  1.70001e-05
 Reference value :  1.70001e-05
 Reference value :  1.70004e-05
 Reference value :  1.70016e-05
 Reference value :  1.70024e-05
 Reference value :  1.70029e-05
 Reference value :  1.70040e-05
 Reference value :  1.70045e-05
 Reference value :  1.70055e-05
 Reference value :  1.70120e-05
 Reference value :  1.70224e-05
 Reference value :  1.70263e-05
 Reference value :  1.70317e-05
 Reference value :  1.70358e-05
 Reference value :  1.70395e-05
 Reference value :  1.70482e-05
 Reference value :  1.70646e-05
 Reference value :  1.71158e-05
 Reference value :  1.71909e-05
 Reference value :  1.72501e-05
 Reference value :  1.72502e-05
 Reference value :  1.72504e-05
 Reference value :  1.72514e-05
 Reference value :  1.72530e-05
 Reference value :  1.72545e-05
 Reference value :  1.72614e-05
 Reference value :  1.73646e-05
 Reference value :  1.75001e-05
 Reference value :  1.75002e-05
 Reference value :  1.75008e-05
 Reference value :  1.75016e-05
 Reference value :  1.75029e-05
 Reference value :  1.75047e-05
 Reference value :  1.75065e-05
 Reference value :  1.75101e-05
 Reference value :  1.75128e-05
 Reference value :  1.75216e-05
 Reference value :  1.75805e-05
 Reference value :  1.77501e-05
 Reference value :  1.77502e-05
 Reference value :  1.77502e-05
 Reference value :  1.77507e-05
 Reference value :  1.77514e-05
 Reference value :  1.77530e-05
 Reference value :  1.77540e-05
 Reference value :  1.77558e-05
 Reference value :  1.77635e-05
 Reference value :  1.79558e-05
 Reference value :  1.80008e-05
 Reference value :  1.80030e-05
 Reference value :  1.80044e-05
 Reference value :  1.80056e-05
 Reference value :  1.80080e-05
 Reference value :  1.80095e-05
 Reference value :  1.80121e-05
 Reference value :  1.80139e-05
 Reference value :  1.80158e-05
 Reference value :  1.80199e-05
 Reference value :  1.80724e-05
 Reference value :  1.82501e-05
 Reference value :  1.82502e-05
 Reference value :  1.82503e-05
 Reference value :  1.82510e-05
 Reference value :  1.82514e-05
 Reference value :  1.82523e-05
 Reference value :  1.82534e-05
 Reference value :  1.82545e-05
 Reference value :  1.82559e-05
 Reference value :  1.82586e-05
 Reference value :  1.82645e-05
 Reference value :  1.83097e-05
 Reference value :  1.85000e-05
 Reference value :  1.85000e-05
 Reference value :  1.85001e-05
 Reference value :  1.85001e-05
 Reference value :  1.85002e-05
 Reference value :  1.85005e-05
 Reference value :  1.85012e-05
 Reference value :  1.85016e-05
 Reference value :  1.85024e-05
 Reference value :  1.85029e-05
 Reference value :  1.85040e-05
 Reference value :  1.85055e-05
 Reference value :  1.85062e-05
 Reference value :  1.85077e-05
 Reference value :  1.85096e-05
 Reference value :  1.85155e-05
 Reference value :  1.85293e-05
 Reference value :  1.85807e-05
 Reference value :  1.87501e-05
 Reference value :  1.87501e-05
 Reference value :  1.87502e-05
 Reference value :  1.87503e-05
 Reference value :  1.87507e-05
 Reference value :  1.87514e-05
 Reference value :  1.87523e-05
 Reference value :  1.87534e-05
 Reference value :  1.87545e-05
 Reference value :  1.87558e-05
 Reference value :  1.87603e-05
 Reference value :  1.87823e-05
 Reference value :  1.89572e-05
 Reference value :  1.90000e-05
 Reference value :  1.90001e-05
 Reference value :  1.90001e-05
 Reference value :  1.90002e-05
 Reference value :  1.90005e-05
 Reference value :  1.90008e-05
 Reference value :  1.90016e-05
 Reference value :  1.90024e-05
 Reference value :  1.90029e-05
 Reference value :  1.90040e-05
 Reference value :  1.90050e-05
 Reference value :  1.90063e-05
 Reference value :  1.90085e-05
 Reference value :  1.90112e-05
 Reference value :  1.90122e-05
 Reference value :  1.90143e-05
 Reference value :  1.90153e-05
 Reference value :  1.90174e-05
 Reference value :  1.90208e-05
 Reference value :  1.90289e-05
 Reference value :  1.90352e-05
 Reference value :  1.90479e-05
 Reference value :  1.90556e-05
 Reference value :  1.90617e-05
 Reference value :  1.90743e-05
 Reference value :  1.90949e-05
 Reference value :  1.91299e-05
 Reference value :  1.92501e-05
 Reference value :  1.92502e-05
 Reference value :  1.92503e-05
 Reference value :  1.92507e-05
 Reference value :  1.92514e-05
 Reference value :  1.92530e-05
 Reference value :  1.92539e-05
 Reference value :  1.92559e-05
 Reference value :  1.92718e-05
 Reference value :  1.94784e-05
 Reference value :  1.95004e-05
 Reference value :  1.95015e-05
 Reference value :  1.95035e-05
 Reference value :  1.95050e-05
 Reference value :  1.95066e-05
 Reference value :  1.95094e-05
 Reference value :  1.95105e-05
 Reference value :  1.95232e-05
 Reference value :  1.96284e-05
 Reference value :  1.97501e-05
 Reference value :  1.97502e-05
 Reference value :  1.97507e-05
 Reference value :  1.97514e-05
 Reference value :  1.97523e-05
 Reference value :  1.97534e-05
 Reference value :  1.97544e-05
 Reference value :  1.97557e-05
 Reference value :  1.97574e-05
 Reference value :  1.97609e-05
 Reference value :  1.99717e-05
 Reference value :  2.00001e-05
 Reference value :  2.00003e-05
 Reference value :  2.00012e-05
 Reference value :  2.00020e-05
 Reference value :  2.00029e-05
 Reference value :  2.00039e-05
 Reference value :  2.00048e-05
 Reference value :  2.00066e-05
 Reference value :  2.00084e-05
 Reference value :  2.00102e-05
 Reference value :  2.00119e-05
 Reference value :  2.00136e-05
 Reference value :  2.00155e-05
 Reference value :  2.00177e-05
 Reference value :  2.00306e-05
 Reference value :  2.00361e-05
 Reference value :  2.00414e-05
 Reference value :  2.00451e-05
 Reference value :  2.00508e-05
 Reference value :  2.00724e-05
 Reference value :  2.01655e-05
 Reference value :  2.02501e-05
 Reference value :  2.02502e-05
 Reference value :  2.02503e-05
 Reference value :  2.02507e-05
 Reference value :  2.02514e-05
 Reference value :  2.02523e-05
 Reference value :  2.02534e-05
 Reference value :  2.02546e-05
 Reference value :  2.02574e-05
 Reference value :  2.02652e-05
 Reference value :  2.03725e-05
 Reference value :  2.05002e-05
 Reference value :  2.05009e-05
 Reference value :  2.05015e-05
 Reference value :  2.05029e-05
 Reference value :  2.05048e-05
 Reference value :  2.05063e-05
 Reference value :  2.05078e-05
 Reference value :  2.05106e-05
 Reference value :  2.05349e-05
 Reference value :  2.07501e-05
 Reference value :  2.07503e-05
 Reference value :  2.07507e-05
 Reference value :  2.07514e-05
 Reference value :  2.07530e-05
 Reference value :  2.07540e-05
 Reference value :  2.07550e-05
 Reference value :  2.07566e-05
 Reference value :  2.07697e-05
 Reference value :  2.08561e-05
 Reference value :  2.10000e-05
 Reference value :  2.10001e-05
 Reference value :  2.10003e-05
 Reference value :  2.10012e-05
 Reference value :  2.10020e-05
 Reference value :  2.10029e-05
 Reference value :  2.10045e-05
 Reference value :  2.10055e-05
 Reference value :  2.10085e-05
 Reference value :  2.10112e-05
 Reference value :  2.10132e-05
 Reference value :  2.10152e-05
 Reference value :  2.10191e-05
 Reference value :  2.10339e-05
 Reference value :  2.10465e-05
 Reference value :  2.10577e-05
 Reference value :  2.10752e-05
 Reference value :  2.11234e-05
 Reference value :  2.12501e-05
 Reference value :  2.12502e-05
 Reference value :  2.12503e-05
 Reference value :  2.12510e-05
 Reference value :  2.12519e-05
 Reference value :  2.12530e-05
 Reference value :  2.12539e-05
 Reference value :  2.12559e-05
 Reference value :  2.12649e-05
 Reference value :  2.13134e-05
 Reference value :  2.15000e-05
 Reference value :  2.15001e-05
 Reference value :  2.15002e-05
 Reference value :  2.15008e-05
 Reference value :  2.15015e-05
 Reference value :  2.15023e-05
 Reference value :  2.15033e-05
 Reference value :  2.15046e-05
 Reference value :  2.15060e-05
 Reference value :  2.15075e-05
 Reference value :  2.15103e-05
 Reference value :  2.15221e-05
 Reference value :  2.15792e-05
 Reference value :  2.17501e-05
 Reference value :  2.17502e-05
 Reference value :  2.17503e-05
 Reference value :  2.17510e-05
 Reference value :  2.17519e-05
 Reference value :  2.17530e-05
 Reference value :  2.17540e-05
 Reference value :  2.17550e-05
 Reference value :  2.17566e-05
 Reference value :  2.17596e-05
 Reference value :  2.17749e-05
 Reference value :  2.19997e-05
 Reference value :  2.20000e-05
 Reference value :  2.20001e-05
 Reference value :  2.20002e-05
 Reference value :  2.20007e-05
 Reference value :  2.20019e-05
 Reference value :  2.20028e-05
 Reference value :  2.20038e-05
 Reference value :  2.20047e-05
 Reference value :  2.20063e-05
 Reference value :  2.20091e-05
 Reference value :  2.20109e-05
 Reference value :  2.20139e-05
 Reference value :  2.20158e-05
 Reference value :  2.20173e-05
 Reference value :  2.20195e-05
 Reference value :  2.20272e-05
 Reference value :  2.20385e-05
 Reference value :  2.20649e-05
 Reference value :  2.21573e-05
 Reference value :  2.22501e-05
 Reference value :  2.22502e-05
 Reference value :  2.22503e-05
 Reference value :  2.22507e-05
 Reference value :  2.22514e-05
 Reference value :  2.22523e-05
 Reference value :  2.22534e-05
 Reference value :  2.22546e-05
 Reference value :  2.22560e-05
 Reference value :  2.22589e-05
 Reference value :  2.22724e-05
 Reference value :  2.23727e-05
 Reference value :  2.25000e-05
 Reference value :  2.25001e-05
 Reference value :  2.25001e-05
 Reference value :  2.25002e-05
 Reference value :  2.25005e-05
 Reference value :  2.25012e-05
 Reference value :  2.25020e-05
 Reference value :  2.25029e-05
 Reference value :  2.25040e-05
 Reference value :  2.25055e-05
 Reference value :  2.25062e-05
 Reference value :  2.25077e-05
 Reference value :  2.25096e-05
 Reference value :  2.25155e-05
 Reference value :  2.25472e-05
 Reference value :  2.27501e-05
 Reference value :  2.27502e-05
 Reference value :  2.27502e-05
 Reference value :  2.27504e-05
 Reference value :  2.27510e-05
 Reference value :  2.27519e-05
 Reference value :  2.27530e-05
 Reference value :  2.27540e-05
 Reference value :  2.27550e-05
 Reference value :  2.27582e-05
 Reference value :  2.27819e-05
 Reference value :  2.29535e-05
 Reference value :  2.30008e-05
 Reference value :  2.30032e-05
 Reference value :  2.30047e-05
 Reference value :  2.30053e-05
 Reference value :  2.30067e-05
 Reference value :  2.30088e-05
 Reference value :  2.30115e-05
 Reference value :  2.30125e-05
 Reference value :  2.30146e-05
 Reference value :  2.30193e-05
 Reference value :  2.30371e-05
 Reference value :  2.30526e-05
 Reference value :  2.30739e-05
 Reference value :  2.30911e-05
 Reference value :  2.31336e-05
 Reference value :  2.32501e-05
 Reference value :  2.32503e-05
 Reference value :  2.32514e-05
 Reference value :  2.32534e-05
 Reference value :  2.32559e-05
 Reference value :  2.32854e-05
 Reference value :  2.35001e-05
 Reference value :  2.35003e-05
 Reference value :  2.35016e-05
 Reference value :  2.35034e-05
 Reference value :  2.35055e-05
 Reference value :  2.35069e-05
 Reference value :  2.35087e-05
 Reference value :  2.35155e-05
 Reference value :  2.35821e-05
 Reference value :  2.37501e-05
 Reference value :  2.37502e-05
 Reference value :  2.37507e-05
 Reference value :  2.37514e-05
 Reference value :  2.37530e-05
 Reference value :  2.37534e-05
 Reference value :  2.37545e-05
 Reference value :  2.37558e-05
 Reference value :  2.37636e-05
 Reference value :  2.38074e-05
 Reference value :  2.40000e-05
 Reference value :  2.40001e-05
 Reference value :  2.40005e-05
 Reference value :  2.40012e-05
 Reference value :  2.40020e-05
 Reference value :  2.40029e-05
 Reference value :  2.40045e-05
 Reference value :  2.40063e-05
 Reference value :  2.40112e-05
 Reference value :  2.40132e-05
 Reference value :  2.40152e-05
 Reference value :  2.40191e-05
 Reference value :  2.40299e-05
 Reference value :  2.40717e-05
 Reference value :  2.41053e-05
 Reference value :  2.41947e-05
 Reference value :  2.42502e-05
 Reference value :  2.42503e-05
 Reference value :  2.42510e-05
 Reference value :  2.42519e-05
 Reference value :  2.42530e-05
 Reference value :  2.42540e-05
 Reference value :  2.42552e-05
 Reference value :  2.42616e-05
 Reference value :  2.43154e-05
 Reference value :  2.45000e-05
 Reference value :  2.45001e-05
 Reference value :  2.45002e-05
 Reference value :  2.45008e-05
 Reference value :  2.45016e-05
 Reference value :  2.45029e-05
 Reference value :  2.45047e-05
 Reference value :  2.45062e-05
 Reference value :  2.45077e-05
 Reference value :  2.45109e-05
 Reference value :  2.45205e-05
 Reference value :  2.47501e-05
 Reference value :  2.47502e-05
 Reference value :  2.47503e-05
 Reference value :  2.47507e-05
 Reference value :  2.47514e-05
 Reference value :  2.47530e-05
 Reference value :  2.47540e-05
 Reference value :  2.47550e-05
 Reference value :  2.47566e-05
 Reference value :  2.47822e-05
 Reference value :  2.50000e-05
 Reference value :  2.50001e-05
 Reference value :  2.50003e-05
 Reference value :  2.50012e-05
 Reference value :  2.50020e-05
 Reference value :  2.50034e-05
 Reference value :  2.50050e-05
 Reference value :  2.50072e-05
 Reference value :  2.50098e-05
 Reference value :  2.50646e-05
 Reference value :  2.52501e-05
 Reference value :  2.52502e-05
 Reference value :  2.52503e-05
 Reference value :  2.52510e-05
 Reference value :  2.52519e-05
 Reference value :  2.52530e-05
 Reference value :  2.52553e-05
 Reference value :  2.52577e-05
 Reference value :  2.52749e-05
 Reference value :  2.55000e-05
 Reference value :  2.55000e-05
 Reference value :  2.55000e-05
 Reference value :  2.55000e-05
 Reference value :  2.55001e-05
 Reference value :  2.55001e-05
 Reference value :  2.55004e-05
 Reference value :  2.55016e-05
 Reference value :  2.55029e-05
 Reference value :  2.55045e-05
 Reference value :  2.55055e-05
 Reference value :  2.55090e-05
 Reference value :  2.55224e-05
 Reference value :  2.55263e-05
 Reference value :  2.55317e-05
 Reference value :  2.55376e-05
 Reference value :  2.55480e-05
 Reference value :  2.55739e-05
 Reference value :  2.56804e-05
 Reference value :  2.57501e-05
 Reference value :  2.57502e-05
 Reference value :  2.57504e-05
 Reference value :  2.57514e-05
 Reference value :  2.57530e-05
 Reference value :  2.57540e-05
 Reference value :  2.57559e-05
 Reference value :  2.57647e-05
 Reference value :  2.58644e-05
 Reference value :  2.60000e-05
 Reference value :  2.60001e-05
 Reference value :  2.60003e-05
 Reference value :  2.60012e-05
 Reference value :  2.60020e-05
 Reference value :  2.60029e-05
 Reference value :  2.60040e-05
 Reference value :  2.60065e-05
 Reference value :  2.60101e-05
 Reference value :  2.60128e-05
 Reference value :  2.60180e-05
 Reference value :  2.60512e-05
 Reference value :  2.62501e-05
 Reference value :  2.62502e-05
 Reference value :  2.62503e-05
 Reference value :  2.62510e-05
 Reference value :  2.62519e-05
 Reference value :  2.62530e-05
 Reference value :  2.62540e-05
 Reference value :  2.62550e-05
 Reference value :  2.62566e-05
 Reference value :  2.62635e-05
 Reference value :  2.63566e-05
 Reference value :  2.65007e-05
 Reference value :  2.65022e-05
 Reference value :  2.65030e-05
 Reference value :  2.65044e-05
 Reference value :  2.65050e-05
 Reference value :  2.65056e-05
 Reference value :  2.65069e-05
 Reference value :  2.65095e-05
 Reference value :  2.65121e-05
 Reference value :  2.65139e-05
 Reference value :  2.65148e-05
 Reference value :  2.65171e-05
 Reference value :  2.65201e-05
 Reference value :  2.65464e-05
 Reference value :  2.66857e-05
 Reference value :  2.67501e-05
 Reference value :  2.67502e-05
 Reference value :  2.67504e-05
 Reference value :  2.67514e-05
 Reference value :  2.67530e-05
 Reference value :  2.67539e-05
 Reference value :  2.67545e-05
 Reference value :  2.67572e-05
 Reference value :  2.67645e-05
 Reference value :  2.68095e-05
 Reference value :  2.70000e-05
 Reference value :  2.70001e-05
 Reference value :  2.70001e-05
 Reference value :  2.70003e-05
 Reference value :  2.70008e-05
 Reference value :  2.70016e-05
 Reference value :  2.70020e-05
 Reference value :  2.70029e-05
 Reference value :  2.70040e-05
 Reference value :  2.70055e-05
 Reference value :  2.70069e-05
 Reference value :  2.70086e-05
 Reference value :  2.70155e-05
 Reference value :  2.70807e-05
 Reference value :  2.72501e-05
 Reference value :  2.72502e-05
 Reference value :  2.72504e-05
 Reference value :  2.72510e-05
 Reference value :  2.72514e-05
 Reference value :  2.72530e-05
 Reference value :  2.72540e-05
 Reference value :  2.72558e-05
 Reference value :  2.72824e-05
 Reference value :  2.75000e-05
 Reference value :  2.75001e-05
 Reference value :  2.75003e-05
 Reference value :  2.75008e-05
 Reference value :  2.75016e-05
 Reference value :  2.75024e-05
 Reference value :  2.75034e-05
 Reference value :  2.75045e-05
 Reference value :  2.75050e-05
 Reference value :  2.75071e-05
 Reference value :  2.75100e-05
 Reference value :  2.75112e-05
 Reference value :  2.75132e-05
 Reference value :  2.75153e-05
 Reference value :  2.75192e-05
 Reference value :  2.75351e-05
 Reference value :  2.75482e-05
 Reference value :  2.75563e-05
 Reference value :  2.75620e-05
 Reference value :  2.75745e-05
 Reference value :  2.75870e-05
 Reference value :  2.76251e-05
 Reference value :  2.77085e-05
 Reference value :  2.77501e-05
 Reference value :  2.77502e-05
 Reference value :  2.77502e-05
 Reference value :  2.77503e-05
 Reference value :  2.77507e-05
 Reference value :  2.77514e-05
 Reference value :  2.77530e-05
 Reference value :  2.77546e-05
 Reference value :  2.77573e-05
 Reference value :  2.77718e-05
 Reference value :  2.79789e-05
 Reference value :  2.80004e-05
 Reference value :  2.80015e-05
 Reference value :  2.80023e-05
 Reference value :  2.80034e-05
 Reference value :  2.80048e-05
 Reference value :  2.80063e-05
 Reference value :  2.80079e-05
 Reference value :  2.80107e-05
 Reference value :  2.80337e-05
 Reference value :  2.82501e-05
 Reference value :  2.82502e-05
 Reference value :  2.82502e-05
 Reference value :  2.82504e-05
 Reference value :  2.82510e-05
 Reference value :  2.82519e-05
 Reference value :  2.82530e-05
 Reference value :  2.82534e-05
 Reference value :  2.82545e-05
 Reference value :  2.82558e-05
 Reference value :  2.82575e-05
 Reference value :  2.82596e-05
 Reference value :  2.82748e-05
 Reference value :  2.84973e-05
 Reference value :  2.85000e-05
 Reference value :  2.85001e-05
 Reference value :  2.85002e-05
 Reference value :  2.85008e-05
 Reference value :  2.85016e-05
 Reference value :  2.85024e-05
 Reference value :  2.85034e-05
 Reference value :  2.85044e-05
 Reference value :  2.85053e-05
 Reference value :  2.85076e-05
 Reference value :  2.85093e-05
 Reference value :  2.85111e-05
 Reference value :  2.85127e-05
 Reference value :  2.85155e-05
 Reference value :  2.85194e-05
 Reference value :  2.85307e-05
 Reference value :  2.85370e-05
 Reference value :  2.85457e-05
 Reference value :  2.85552e-05
 Reference value :  2.85826e-05
 Reference value :  2.86511e-05
 Reference value :  2.87501e-05
 Reference value :  2.87501e-05
 Reference value :  2.87502e-05
 Reference value :  2.87503e-05
 Reference value :  2.87510e-05
 Reference value :  2.87519e-05
 Reference value :  2.87530e-05
 Reference value :  2.87540e-05
 Reference value :  2.87552e-05
 Reference value :  2.87574e-05
 Reference value :  2.87652e-05
 Reference value :  2.88153e-05
 Reference value :  2.90000e-05
 Reference value :  2.90002e-05
 Reference value :  2.90009e-05
 Reference value :  2.90015e-05
 Reference value :  2.90029e-05
 Reference value :  2.90048e-05
 Reference value :  2.90063e-05
 Reference value :  2.90078e-05
 Reference value :  2.90107e-05
 Reference value :  2.90350e-05
 Reference value :  2.92501e-05
 Reference value :  2.92502e-05
 Reference value :  2.92503e-05
 Reference value :  2.92507e-05
 Reference value :  2.92514e-05
 Reference value :  2.92523e-05
 Reference value :  2.92534e-05
 Reference value :  2.92545e-05
 Reference value :  2.92558e-05
 Reference value :  2.92582e-05
 Reference value :  2.92635e-05
 Reference value :  2.93068e-05
 Reference value :  2.95000e-05
 Reference value :  2.95001e-05
 Reference value :  2.95001e-05
 Reference value :  2.95003e-05
 Reference value :  2.95008e-05
 Reference value :  2.95016e-05
 Reference value :  2.95024e-05
 Reference value :  2.95029e-05
 Reference value :  2.95040e-05
 Reference value :  2.95050e-05
 Reference value :  2.95063e-05
 Reference value :  2.95085e-05
 Reference value :  2.95112e-05
 Reference value :  2.95132e-05
 Reference value :  2.95152e-05
 Reference value :  2.95191e-05
 Reference value :  2.95337e-05
 Reference value :  2.95453e-05
 Reference value :  2.95553e-05
 Reference value :  2.95732e-05
 Reference value :  2.96116e-05
 Reference value :  2.97501e-05
 Reference value :  2.97502e-05
 Reference value :  2.97502e-05
 Reference value :  2.97504e-05
 Reference value :  2.97510e-05
 Reference value :  2.97519e-05
 Reference value :  2.97530e-05
 Reference value :  2.97539e-05
 Reference value :  2.97559e-05
 Reference value :  2.97615e-05
 Reference value :  2.97857e-05
 Reference value :  2.99798e-05
 Reference value :  3.00001e-05
 Reference value :  3.00001e-05
 Reference value :  3.00003e-05
 Reference value :  3.00008e-05
 Reference value :  3.00015e-05
 Reference value :  3.00023e-05
 Reference value :  3.00033e-05
 Reference value :  3.00054e-05
 Reference value :  3.00060e-05
 Reference value :  3.00075e-05
 Reference value :  3.00092e-05
 Reference value :  3.00114e-05
 Reference value :  3.00222e-05
 Reference value :  3.00794e-05
 Reference value :  3.02501e-05
 Reference value :  3.02502e-05
 Reference value :  3.02503e-05
 Reference value :  3.02510e-05
 Reference value :  3.02519e-05
 Reference value :  3.02530e-05
 Reference value :  3.02540e-05
 Reference value :  3.02550e-05
 Reference value :  3.02566e-05
 Reference value :  3.02584e-05
 Reference value :  3.02611e-05
 Reference value :  3.02901e-05
 Reference value :  3.05000e-05
 Reference value :  3.05018e-05
 Reference value :  3.05074e-05
 Reference value :  3.05107e-05
 Reference value :  3.05128e-05
 Reference value :  3.05157e-05
 Reference value :  3.05199e-05
 Reference value :  3.05326e-05
 Reference value :  3.05481e-05
 Reference value :  3.05870e-05
 Reference value :  3.07501e-05
 Reference value :  3.07501e-05
 Reference value :  3.07502e-05
 Reference value :  3.07503e-05
 Reference value :  3.07507e-05
 Reference value :  3.07514e-05
 Reference value :  3.07528e-05
 Reference value :  3.07544e-05
 Reference value :  3.07580e-05
 Reference value :  3.08238e-05
 Reference value :  3.10001e-05
 Reference value :  3.10002e-05
 Reference value :  3.10012e-05
 Reference value :  3.10024e-05
 Reference value :  3.10040e-05
 Reference value :  3.10062e-05
 Reference value :  3.10077e-05
 Reference value :  3.10109e-05
 Reference value :  3.10298e-05
 Reference value :  3.12501e-05
 Reference value :  3.12502e-05
 Reference value :  3.12504e-05
 Reference value :  3.12514e-05
 Reference value :  3.12523e-05
 Reference value :  3.12530e-05
 Reference value :  3.12534e-05
 Reference value :  3.12545e-05
 Reference value :  3.12558e-05
 Reference value :  3.12603e-05
 Reference value :  3.12824e-05
 Reference value :  3.14581e-05
 Reference value :  3.15000e-05
 Reference value :  3.15001e-05
 Reference value :  3.15002e-05
 Reference value :  3.15008e-05
 Reference value :  3.15016e-05
 Reference value :  3.15024e-05
 Reference value :  3.15034e-05
 Reference value :  3.15045e-05
 Reference value :  3.15050e-05
 Reference value :  3.15063e-05
 Reference value :  3.15085e-05
 Reference value :  3.15112e-05
 Reference value :  3.15122e-05
 Reference value :  3.15143e-05
 Reference value :  3.15152e-05
 Reference value :  3.15174e-05
 Reference value :  3.15239e-05
 Reference value :  3.15320e-05
 Reference value :  3.15419e-05
 Reference value :  3.15514e-05
 Reference value :  3.15635e-05
 Reference value :  3.15720e-05
 Reference value :  3.15909e-05
 Reference value :  3.16401e-05
 Reference value :  3.17501e-05
 Reference value :  3.17502e-05
 Reference value :  3.17502e-05
 Reference value :  3.17504e-05
 Reference value :  3.17514e-05
 Reference value :  3.17530e-05
 Reference value :  3.17546e-05
 Reference value :  3.17616e-05
 Reference value :  3.18723e-05
 Reference value :  3.20001e-05
 Reference value :  3.20002e-05
 Reference value :  3.20008e-05
 Reference value :  3.20020e-05
 Reference value :  3.20034e-05
 Reference value :  3.20055e-05
 Reference value :  3.20069e-05
 Reference value :  3.20086e-05
 Reference value :  3.20125e-05
 Reference value :  3.20295e-05
 Reference value :  3.22501e-05
 Reference value :  3.22502e-05
 Reference value :  3.22503e-05
 Reference value :  3.22510e-05
 Reference value :  3.22519e-05
 Reference value :  3.22530e-05
 Reference value :  3.22534e-05
 Reference value :  3.22545e-05
 Reference value :  3.22558e-05
 Reference value :  3.22698e-05
 Reference value :  3.25000e-05
 Reference value :  3.25001e-05
 Reference value :  3.25002e-05
 Reference value :  3.25005e-05
 Reference value :  3.25012e-05
 Reference value :  3.25020e-05
 Reference value :  3.25029e-05
 Reference value :  3.25040e-05
 Reference value :  3.25050e-05
 Reference value :  3.25063e-05
 Reference value :  3.25085e-05
 Reference value :  3.25112e-05
 Reference value :  3.25122e-05
 Reference value :  3.25143e-05
 Reference value :  3.25152e-05
 Reference value :  3.25174e-05
 Reference value :  3.25207e-05
 Reference value :  3.25299e-05
 Reference value :  3.25603e-05
 Reference value :  3.26506e-05
 Reference value :  3.27501e-05
 Reference value :  3.27502e-05
 Reference value :  3.27503e-05
 Reference value :  3.27510e-05
 Reference value :  3.27519e-05
 Reference value :  3.27530e-05
 Reference value :  3.27534e-05
 Reference value :  3.27547e-05
 Reference value :  3.27576e-05
 Reference value :  3.27658e-05
 Reference value :  3.28837e-05
 Reference value :  3.30000e-05
 Reference value :  3.30001e-05
 Reference value :  3.30002e-05
 Reference value :  3.30005e-05
 Reference value :  3.30012e-05
 Reference value :  3.30020e-05
 Reference value :  3.30029e-05
 Reference value :  3.30047e-05
 Reference value :  3.30062e-05
 Reference value :  3.30077e-05
 Reference value :  3.30109e-05
 Reference value :  3.30205e-05
 Reference value :  3.31515e-05
 Reference value :  3.32501e-05
 Reference value :  3.32502e-05
 Reference value :  3.32504e-05
 Reference value :  3.32510e-05
 Reference value :  3.32514e-05
 Reference value :  3.32530e-05
 Reference value :  3.32534e-05
 Reference value :  3.32550e-05
 Reference value :  3.32566e-05
 Reference value :  3.32636e-05
 Reference value :  3.33569e-05
 Reference value :  3.35007e-05
 Reference value :  3.35030e-05
 Reference value :  3.35044e-05
 Reference value :  3.35056e-05
 Reference value :  3.35071e-05
 Reference value :  3.35097e-05
 Reference value :  3.35161e-05
 Reference value :  3.35958e-05
 Reference value :  3.37501e-05
 Reference value :  3.37502e-05
 Reference value :  3.37503e-05
 Reference value :  3.37510e-05
 Reference value :  3.37519e-05
 Reference value :  3.37529e-05
 Reference value :  3.37545e-05
 Reference value :  3.37562e-05
 Reference value :  3.37590e-05
 Reference value :  3.37739e-05
 Reference value :  3.38876e-05
 Reference value :  3.40000e-05
 Reference value :  3.40000e-05
 Reference value :  3.40000e-05
 Reference value :  3.40000e-05
 Reference value :  3.40000e-05
 Reference value :  3.40001e-05
 Reference value :  3.40001e-05
 Reference value :  3.40002e-05
 Reference value :  3.40004e-05
 Reference value :  3.40016e-05
 Reference value :  3.40024e-05
 Reference value :  3.40035e-05
 Reference value :  3.40045e-05
 Reference value :  3.40062e-05
 Reference value :  3.40224e-05
 Reference value :  3.40263e-05
 Reference value :  3.40318e-05
 Reference value :  3.40358e-05
 Reference value :  3.40394e-05
 Reference value :  3.40480e-05
 Reference value :  3.40634e-05
 Reference value :  3.41372e-05
 Reference value :  3.42501e-05
 Reference value :  3.42502e-05
 Reference value :  3.42507e-05
 Reference value :  3.42514e-05
 Reference value :  3.42530e-05
 Reference value :  3.42539e-05
 Reference value :  3.42559e-05
 Reference value :  3.42647e-05
 Reference value :  3.43114e-05
 Reference value :  3.44714e-05
 Reference value :  3.45000e-05
 Reference value :  3.45001e-05
 Reference value :  3.45001e-05
 Reference value :  3.45003e-05
 Reference value :  3.45012e-05
 Reference value :  3.45016e-05
 Reference value :  3.45024e-05
 Reference value :  3.45034e-05
 Reference value :  3.45055e-05
 Reference value :  3.45065e-05
 Reference value :  3.45101e-05
 Reference value :  3.45115e-05
 Reference value :  3.45141e-05
 Reference value :  3.45180e-05
 Reference value :  3.45362e-05
 Reference value :  3.46391e-05
 Reference value :  3.47501e-05
 Reference value :  3.47502e-05
 Reference value :  3.47504e-05
 Reference value :  3.47514e-05
 Reference value :  3.47530e-05
 Reference value :  3.47540e-05
 Reference value :  3.47550e-05
 Reference value :  3.47566e-05
 Reference value :  3.47697e-05
 Reference value :  3.49559e-05
 Reference value :  3.50001e-05
 Reference value :  3.50001e-05
 Reference value :  3.50003e-05
 Reference value :  3.50012e-05
 Reference value :  3.50016e-05
 Reference value :  3.50024e-05
 Reference value :  3.50029e-05
 Reference value :  3.50040e-05
 Reference value :  3.50050e-05
 Reference value :  3.50063e-05
 Reference value :  3.50085e-05
 Reference value :  3.50112e-05
 Reference value :  3.50143e-05
 Reference value :  3.50163e-05
 Reference value :  3.50207e-05
 Reference value :  3.50494e-05
 Reference value :  3.52501e-05
 Reference value :  3.52502e-05
 Reference value :  3.52503e-05
 Reference value :  3.52507e-05
 Reference value :  3.52514e-05
 Reference value :  3.52530e-05
 Reference value :  3.52540e-05
 Reference value :  3.52561e-05
 Reference value :  3.52619e-05
 Reference value :  3.52894e-05
 Reference value :  3.55000e-05
 Reference value :  3.55001e-05
 Reference value :  3.55001e-05
 Reference value :  3.55002e-05
 Reference value :  3.55008e-05
 Reference value :  3.55016e-05
 Reference value :  3.55029e-05
 Reference value :  3.55040e-05
 Reference value :  3.55055e-05
 Reference value :  3.55062e-05
 Reference value :  3.55077e-05
 Reference value :  3.55109e-05
 Reference value :  3.55294e-05
 Reference value :  3.57501e-05
 Reference value :  3.57502e-05
 Reference value :  3.57503e-05
 Reference value :  3.57510e-05
 Reference value :  3.57519e-05
 Reference value :  3.57530e-05
 Reference value :  3.57540e-05
 Reference value :  3.57550e-05
 Reference value :  3.57566e-05
 Reference value :  3.57698e-05
 Reference value :  3.59573e-05
 Reference value :  3.60007e-05
 Reference value :  3.60029e-05
 Reference value :  3.60043e-05
 Reference value :  3.60055e-05
 Reference value :  3.60078e-05
 Reference value :  3.60092e-05
 Reference value :  3.60119e-05
 Reference value :  3.60139e-05
 Reference value :  3.60173e-05
 Reference value :  3.60270e-05
 Reference value :  3.60531e-05
 Reference value :  3.60671e-05
 Reference value :  3.60867e-05
 Reference value :  3.61653e-05
 Reference value :  3.62501e-05
 Reference value :  3.62502e-05
 Reference value :  3.62504e-05
 Reference value :  3.62514e-05
 Reference value :  3.62523e-05
 Reference value :  3.62534e-05
 Reference value :  3.62551e-05
 Reference value :  3.62647e-05
 Reference value :  3.63635e-05
 Reference value :  3.65000e-05
 Reference value :  3.65001e-05
 Reference value :  3.65005e-05
 Reference value :  3.65015e-05
 Reference value :  3.65028e-05
 Reference value :  3.65046e-05
 Reference value :  3.65060e-05
 Reference value :  3.65075e-05
 Reference value :  3.65103e-05
 Reference value :  3.65167e-05
 Reference value :  3.65796e-05
 Reference value :  3.67501e-05
 Reference value :  3.67502e-05
 Reference value :  3.67503e-05
 Reference value :  3.67507e-05
 Reference value :  3.67514e-05
 Reference value :  3.67530e-05
 Reference value :  3.67540e-05
 Reference value :  3.67550e-05
 Reference value :  3.67566e-05
 Reference value :  3.67596e-05
 Reference value :  3.67748e-05
 Reference value :  3.68794e-05
 Reference value :  3.70000e-05
 Reference value :  3.70001e-05
 Reference value :  3.70003e-05
 Reference value :  3.70012e-05
 Reference value :  3.70020e-05
 Reference value :  3.70029e-05
 Reference value :  3.70039e-05
 Reference value :  3.70048e-05
 Reference value :  3.70066e-05
 Reference value :  3.70084e-05
 Reference value :  3.70102e-05
 Reference value :  3.70119e-05
 Reference value :  3.70136e-05
 Reference value :  3.70155e-05
 Reference value :  3.70214e-05
 Reference value :  3.70369e-05
 Reference value :  3.70426e-05
 Reference value :  3.70454e-05
 Reference value :  3.70545e-05
 Reference value :  3.70740e-05
 Reference value :  3.71336e-05
 Reference value :  3.72492e-05
 Reference value :  3.72501e-05
 Reference value :  3.72502e-05
 Reference value :  3.72504e-05
 Reference value :  3.72514e-05
 Reference value :  3.72530e-05
 Reference value :  3.72540e-05
 Reference value :  3.72560e-05
 Reference value :  3.72652e-05
 Reference value :  3.73725e-05
 Reference value :  3.75000e-05
 Reference value :  3.75001e-05
 Reference value :  3.75003e-05
 Reference value :  3.75008e-05
 Reference value :  3.75016e-05
 Reference value :  3.75029e-05
 Reference value :  3.75040e-05
 Reference value :  3.75055e-05
 Reference value :  3.75062e-05
 Reference value :  3.75077e-05
 Reference value :  3.75109e-05
 Reference value :  3.75296e-05
 Reference value :  3.77501e-05
 Reference value :  3.77502e-05
 Reference value :  3.77502e-05
 Reference value :  3.77504e-05
 Reference value :  3.77514e-05
 Reference value :  3.77530e-05
 Reference value :  3.77540e-05
 Reference value :  3.77558e-05
 Reference value :  3.77636e-05
 Reference value :  3.78566e-05
 Reference value :  3.80000e-05
 Reference value :  3.80001e-05
 Reference value :  3.80005e-05
 Reference value :  3.80016e-05
 Reference value :  3.80029e-05
 Reference value :  3.80045e-05
 Reference value :  3.80063e-05
 Reference value :  3.80112e-05
 Reference value :  3.80143e-05
 Reference value :  3.80173e-05
 Reference value :  3.80275e-05
 Reference value :  3.80435e-05
 Reference value :  3.80703e-05
 Reference value :  3.81631e-05
 Reference value :  3.82502e-05
 Reference value :  3.82504e-05
 Reference value :  3.82514e-05
 Reference value :  3.82534e-05
 Reference value :  3.82559e-05
 Reference value :  3.83135e-05
 Reference value :  3.85000e-05
 Reference value :  3.85001e-05
 Reference value :  3.85006e-05
 Reference value :  3.85017e-05
 Reference value :  3.85038e-05
 Reference value :  3.85058e-05
 Reference value :  3.85092e-05
 Reference value :  3.85171e-05
 Reference value :  3.85279e-05
 Reference value :  3.86084e-05
 Reference value :  3.87501e-05
 Reference value :  3.87502e-05
 Reference value :  3.87507e-05
 Reference value :  3.87514e-05
 Reference value :  3.87530e-05
 Reference value :  3.87544e-05
 Reference value :  3.87565e-05
 Reference value :  3.87805e-05
 Reference value :  3.90000e-05
 Reference value :  3.90001e-05
 Reference value :  3.90002e-05
 Reference value :  3.90005e-05
 Reference value :  3.90012e-05
 Reference value :  3.90016e-05
 Reference value :  3.90029e-05
 Reference value :  3.90045e-05
 Reference value :  3.90055e-05
 Reference value :  3.90085e-05
 Reference value :  3.90112e-05
 Reference value :  3.90132e-05
 Reference value :  3.90152e-05
 Reference value :  3.90191e-05
 Reference value :  3.90280e-05
 Reference value :  3.90313e-05
 Reference value :  3.90375e-05
 Reference value :  3.90442e-05
 Reference value :  3.90573e-05
 Reference value :  3.90802e-05
 Reference value :  3.91612e-05
 Reference value :  3.92501e-05
 Reference value :  3.92502e-05
 Reference value :  3.92503e-05
 Reference value :  3.92510e-05
 Reference value :  3.92523e-05
 Reference value :  3.92534e-05
 Reference value :  3.92553e-05
 Reference value :  3.92615e-05
 Reference value :  3.93134e-05
 Reference value :  3.95000e-05
 Reference value :  3.95001e-05
 Reference value :  3.95002e-05
 Reference value :  3.95005e-05
 Reference value :  3.95012e-05
 Reference value :  3.95019e-05
 Reference value :  3.95028e-05
 Reference value :  3.95046e-05
 Reference value :  3.95060e-05
 Reference value :  3.95075e-05
 Reference value :  3.95103e-05
 Reference value :  3.95316e-05
 Reference value :  3.97501e-05
 Reference value :  3.97502e-05
 Reference value :  3.97503e-05
 Reference value :  3.97510e-05
 Reference value :  3.97514e-05
 Reference value :  3.97530e-05
 Reference value :  3.97534e-05
 Reference value :  3.97545e-05
 Reference value :  3.97558e-05
 Reference value :  3.97575e-05
 Reference value :  3.97596e-05
 Reference value :  3.97674e-05
 Reference value :  3.98789e-05
 Reference value :  4.00000e-05
 Reference value :  4.00001e-05
 Reference value :  4.00002e-05
 Reference value :  4.00005e-05
 Reference value :  4.00012e-05
 Reference value :  4.00020e-05
 Reference value :  4.00029e-05
 Reference value :  4.00039e-05
 Reference value :  4.00048e-05
 Reference value :  4.00059e-05
 Reference value :  4.00076e-05
 Reference value :  4.00093e-05
 Reference value :  4.00102e-05
 Reference value :  4.00111e-05
 Reference value :  4.00119e-05
 Reference value :  4.00135e-05
 Reference value :  4.00164e-05
 Reference value :  4.00190e-05
 Reference value :  4.00279e-05
 Reference value :  4.00434e-05
 Reference value :  4.00623e-05
 Reference value :  4.00850e-05
 Reference value :  4.01153e-05
 Reference value :  4.02501e-05
 Reference value :  4.02501e-05
 Reference value :  4.02502e-05
 Reference value :  4.02503e-05
 Reference value :  4.02504e-05
 Reference value :  4.02510e-05
 Reference value :  4.02519e-05
 Reference value :  4.02530e-05
 Reference value :  4.02540e-05
 Reference value :  4.02553e-05
 Reference value :  4.02575e-05
 Reference value :  4.02654e-05
 Reference value :  4.03168e-05
 Reference value :  4.05000e-05
 Reference value :  4.05001e-05
 Reference value :  4.05003e-05
 Reference value :  4.05012e-05
 Reference value :  4.05019e-05
 Reference value :  4.05028e-05
 Reference value :  4.05046e-05
 Reference value :  4.05060e-05
 Reference value :  4.05084e-05
 Reference value :  4.05114e-05
 Reference value :  4.05790e-05
 Reference value :  4.07502e-05
 Reference value :  4.07507e-05
 Reference value :  4.07523e-05
 Reference value :  4.07540e-05
 Reference value :  4.07558e-05
 Reference value :  4.07596e-05
 Reference value :  4.08772e-05
 Reference value :  4.10001e-05
 Reference value :  4.10001e-05
 Reference value :  4.10002e-05
 Reference value :  4.10008e-05
 Reference value :  4.10024e-05
 Reference value :  4.10039e-05
 Reference value :  4.10063e-05
 Reference value :  4.10091e-05
 Reference value :  4.10119e-05
 Reference value :  4.10146e-05
 Reference value :  4.10179e-05
 Reference value :  4.10439e-05
 Reference value :  4.12501e-05
 Reference value :  4.12502e-05
 Reference value :  4.12507e-05
 Reference value :  4.12519e-05
 Reference value :  4.12534e-05
 Reference value :  4.12560e-05
 Reference value :  4.12728e-05
 Reference value :  4.14931e-05
 Reference value :  4.15001e-05
 Reference value :  4.15002e-05
 Reference value :  4.15005e-05
 Reference value :  4.15015e-05
 Reference value :  4.15028e-05
 Reference value :  4.15046e-05
 Reference value :  4.15060e-05
 Reference value :  4.15075e-05
 Reference value :  4.15103e-05
 Reference value :  4.15315e-05
 Reference value :  4.17501e-05
 Reference value :  4.17502e-05
 Reference value :  4.17507e-05
 Reference value :  4.17514e-05
 Reference value :  4.17530e-05
 Reference value :  4.17540e-05
 Reference value :  4.17550e-05
 Reference value :  4.17566e-05
 Reference value :  4.17596e-05
 Reference value :  4.17746e-05
 Reference value :  4.19954e-05
 Reference value :  4.20001e-05
 Reference value :  4.20002e-05
 Reference value :  4.20005e-05
 Reference value :  4.20012e-05
 Reference value :  4.20020e-05
 Reference value :  4.20029e-05
 Reference value :  4.20039e-05
 Reference value :  4.20048e-05
 Reference value :  4.20059e-05
 Reference value :  4.20074e-05
 Reference value :  4.20091e-05
 Reference value :  4.20130e-05
 Reference value :  4.20176e-05
 Reference value :  4.20246e-05
 Reference value :  4.20343e-05
 Reference value :  4.20454e-05
 Reference value :  4.20682e-05
 Reference value :  4.21091e-05
 Reference value :  4.22501e-05
 Reference value :  4.22502e-05
 Reference value :  4.22503e-05
 Reference value :  4.22510e-05
 Reference value :  4.22519e-05
 Reference value :  4.22530e-05
 Reference value :  4.22553e-05
 Reference value :  4.22577e-05
 Reference value :  4.22663e-05
 Reference value :  4.23217e-05
 Reference value :  4.25000e-05
 Reference value :  4.25000e-05
 Reference value :  4.25000e-05
 Reference value :  4.25001e-05
 Reference value :  4.25001e-05
 Reference value :  4.25004e-05
 Reference value :  4.25016e-05
 Reference value :  4.25024e-05
 Reference value :  4.25035e-05
 Reference value :  4.25045e-05
 Reference value :  4.25055e-05
 Reference value :  4.25120e-05
 Reference value :  4.25224e-05
 Reference value :  4.25262e-05
 Reference value :  4.25291e-05
 Reference value :  4.25317e-05
 Reference value :  4.25338e-05
 Reference value :  4.25380e-05
 Reference value :  4.25427e-05
 Reference value :  4.25602e-05
 Reference value :  4.25991e-05
 Reference value :  4.27501e-05
 Reference value :  4.27502e-05
 Reference value :  4.27504e-05
 Reference value :  4.27514e-05
 Reference value :  4.27523e-05
 Reference value :  4.27534e-05
 Reference value :  4.27545e-05
 Reference value :  4.27573e-05
 Reference value :  4.27714e-05
 Reference value :  4.29706e-05
 Reference value :  4.30000e-05
 Reference value :  4.30001e-05
 Reference value :  4.30002e-05
 Reference value :  4.30008e-05
 Reference value :  4.30016e-05
 Reference value :  4.30029e-05
 Reference value :  4.30040e-05
 Reference value :  4.30065e-05
 Reference value :  4.30101e-05
 Reference value :  4.30128e-05
 Reference value :  4.30180e-05
 Reference value :  4.30796e-05
 Reference value :  4.32501e-05
 Reference value :  4.32502e-05
 Reference value :  4.32507e-05
 Reference value :  4.32514e-05
 Reference value :  4.32530e-05
 Reference value :  4.32540e-05
 Reference value :  4.32558e-05
 Reference value :  4.32635e-05
 Reference value :  4.34560e-05
 Reference value :  4.35007e-05
 Reference value :  4.35030e-05
 Reference value :  4.35044e-05
 Reference value :  4.35050e-05
 Reference value :  4.35080e-05
 Reference value :  4.35108e-05
 Reference value :  4.35130e-05
 Reference value :  4.35148e-05
 Reference value :  4.35181e-05
 Reference value :  4.35259e-05
 Reference value :  4.35676e-05
 Reference value :  4.37501e-05
 Reference value :  4.37502e-05
 Reference value :  4.37502e-05
 Reference value :  4.37504e-05
 Reference value :  4.37514e-05
 Reference value :  4.37530e-05
 Reference value :  4.37539e-05
 Reference value :  4.37551e-05
 Reference value :  4.37586e-05
 Reference value :  4.37708e-05
 Reference value :  4.38603e-05
 Reference value :  4.40000e-05
 Reference value :  4.40001e-05
 Reference value :  4.40001e-05
 Reference value :  4.40003e-05
 Reference value :  4.40008e-05
 Reference value :  4.40016e-05
 Reference value :  4.40024e-05
 Reference value :  4.40029e-05
 Reference value :  4.40040e-05
 Reference value :  4.40055e-05
 Reference value :  4.40069e-05
 Reference value :  4.40096e-05
 Reference value :  4.40293e-05
 Reference value :  4.42501e-05
 Reference value :  4.42501e-05
 Reference value :  4.42502e-05
 Reference value :  4.42503e-05
 Reference value :  4.42507e-05
 Reference value :  4.42514e-05
 Reference value :  4.42523e-05
 Reference value :  4.42534e-05
 Reference value :  4.42545e-05
 Reference value :  4.42566e-05
 Reference value :  4.42826e-05
 Reference value :  4.45000e-05
 Reference value :  4.45001e-05
 Reference value :  4.45001e-05
 Reference value :  4.45003e-05
 Reference value :  4.45012e-05
 Reference value :  4.45020e-05
 Reference value :  4.45029e-05
 Reference value :  4.45040e-05
 Reference value :  4.45050e-05
 Reference value :  4.45071e-05
 Reference value :  4.45100e-05
 Reference value :  4.45112e-05
 Reference value :  4.45132e-05
 Reference value :  4.45153e-05
 Reference value :  4.45192e-05
 Reference value :  4.45351e-05
 Reference value :  4.45505e-05
 Reference value :  4.45665e-05
 Reference value :  4.45887e-05
 Reference value :  4.46428e-05
 Reference value :  4.47501e-05
 Reference value :  4.47502e-05
 Reference value :  4.47503e-05
 Reference value :  4.47507e-05
 Reference value :  4.47514e-05
 Reference value :  4.47530e-05
 Reference value :  4.47539e-05
 Reference value :  4.47553e-05
 Reference value :  4.47573e-05
 Reference value :  4.47649e-05
 Reference value :  4.48133e-05
 Reference value :  4.50000e-05
 Reference value :  4.50001e-05
 Reference value :  4.50001e-05
 Reference value :  4.50002e-05
 Reference value :  4.50008e-05
 Reference value :  4.50015e-05
 Reference value :  4.50023e-05
 Reference value :  4.50033e-05
 Reference value :  4.50054e-05
 Reference value :  4.50066e-05
 Reference value :  4.50084e-05
 Reference value :  4.50103e-05
 Reference value :  4.50221e-05
 Reference value :  4.51427e-05
 Reference value :  4.52502e-05
 Reference value :  4.52503e-05
 Reference value :  4.52510e-05
 Reference value :  4.52523e-05
 Reference value :  4.52534e-05
 Reference value :  4.52550e-05
 Reference value :  4.52566e-05
 Reference value :  4.52584e-05
 Reference value :  4.52611e-05
 Reference value :  4.52899e-05
 Reference value :  4.55000e-05
 Reference value :  4.55001e-05
 Reference value :  4.55001e-05
 Reference value :  4.55003e-05
 Reference value :  4.55008e-05
 Reference value :  4.55016e-05
 Reference value :  4.55024e-05
 Reference value :  4.55029e-05
 Reference value :  4.55039e-05
 Reference value :  4.55048e-05
 Reference value :  4.55059e-05
 Reference value :  4.55076e-05
 Reference value :  4.55093e-05
 Reference value :  4.55102e-05
 Reference value :  4.55119e-05
 Reference value :  4.55136e-05
 Reference value :  4.55165e-05
 Reference value :  4.55214e-05
 Reference value :  4.55363e-05
 Reference value :  4.55413e-05
 Reference value :  4.55440e-05
 Reference value :  4.55523e-05
 Reference value :  4.55813e-05
 Reference value :  4.56939e-05
 Reference value :  4.57502e-05
 Reference value :  4.57503e-05
 Reference value :  4.57507e-05
 Reference value :  4.57514e-05
 Reference value :  4.57523e-05
 Reference value :  4.57534e-05
 Reference value :  4.57546e-05
 Reference value :  4.57560e-05
 Reference value :  4.57589e-05
 Reference value :  4.57652e-05
 Reference value :  4.57867e-05
 Reference value :  4.58725e-05
 Reference value :  4.60000e-05
 Reference value :  4.60002e-05
 Reference value :  4.60009e-05
 Reference value :  4.60015e-05
 Reference value :  4.60024e-05
 Reference value :  4.60034e-05
 Reference value :  4.60048e-05
 Reference value :  4.60063e-05
 Reference value :  4.60078e-05
 Reference value :  4.60096e-05
 Reference value :  4.60226e-05
 Reference value :  4.62036e-05
 Reference value :  4.62502e-05
 Reference value :  4.62502e-05
 Reference value :  4.62504e-05
 Reference value :  4.62514e-05
 Reference value :  4.62523e-05
 Reference value :  4.62534e-05
 Reference value :  4.62545e-05
 Reference value :  4.62558e-05
 Reference value :  4.62602e-05
 Reference value :  4.63067e-05
 Reference value :  4.65000e-05
 Reference value :  4.65001e-05
 Reference value :  4.65005e-05
 Reference value :  4.65016e-05
 Reference value :  4.65029e-05
 Reference value :  4.65050e-05
 Reference value :  4.65100e-05
 Reference value :  4.65132e-05
 Reference value :  4.65174e-05
 Reference value :  4.65391e-05
 Reference value :  4.65578e-05
 Reference value :  4.65889e-05
 Reference value :  4.67127e-05
 Reference value :  4.67501e-05
 Reference value :  4.67502e-05
 Reference value :  4.67504e-05
 Reference value :  4.67514e-05
 Reference value :  4.67530e-05
 Reference value :  4.67539e-05
 Reference value :  4.67559e-05
 Reference value :  4.67649e-05
 Reference value :  4.68125e-05
 Reference value :  4.68840e-05
 Reference value :  4.69341e-05
 Reference value :  4.69871e-05
 Reference value :  4.70000e-05
 Reference value :  4.70001e-05
 Reference value :  4.70002e-05
 Reference value :  4.70005e-05
 Reference value :  4.70012e-05
 Reference value :  4.70020e-05
 Reference value :  4.70029e-05
 Reference value :  4.70040e-05
 Reference value :  4.70055e-05
 Reference value :  4.70069e-05
 Reference value :  4.70086e-05
 Reference value :  4.70155e-05
 Reference value :  4.70799e-05
 Reference value :  4.72501e-05
 Reference value :  4.72502e-05
 Reference value :  4.72503e-05
 Reference value :  4.72510e-05
 Reference value :  4.72519e-05
 Reference value :  4.72530e-05
 Reference value :  4.72540e-05
 Reference value :  4.72550e-05
 Reference value :  4.72566e-05
 Reference value :  4.72698e-05
 Reference value :  4.73572e-05
 Reference value :  4.75000e-05
 Reference value :  4.75001e-05
 Reference value :  4.75002e-05
 Reference value :  4.75005e-05
 Reference value :  4.75012e-05
 Reference value :  4.75020e-05
 Reference value :  4.75029e-05
 Reference value :  4.75045e-05
 Reference value :  4.75055e-05
 Reference value :  4.75085e-05
 Reference value :  4.75112e-05
 Reference value :  4.75132e-05
 Reference value :  4.75152e-05
 Reference value :  4.75192e-05
 Reference value :  4.75289e-05
 Reference value :  4.75326e-05
 Reference value :  4.75392e-05
 Reference value :  4.75518e-05
 Reference value :  4.75785e-05
 Reference value :  4.77501e-05
 Reference value :  4.77502e-05
 Reference value :  4.77503e-05
 Reference value :  4.77510e-05
 Reference value :  4.77519e-05
 Reference value :  4.77530e-05
 Reference value :  4.77539e-05
 Reference value :  4.77553e-05
 Reference value :  4.77588e-05
 Reference value :  4.77857e-05
 Reference value :  4.80000e-05
 Reference value :  4.80001e-05
 Reference value :  4.80001e-05
 Reference value :  4.80003e-05
 Reference value :  4.80008e-05
 Reference value :  4.80015e-05
 Reference value :  4.80028e-05
 Reference value :  4.80046e-05
 Reference value :  4.80060e-05
 Reference value :  4.80084e-05
 Reference value :  4.80167e-05
[...]
 Reference value :  1.66250e-04
 Reference value :  1.66251e-04
 Reference value :  1.66252e-04
 Reference value :  1.66253e-04
 Reference value :  1.66254e-04
 Reference value :  1.66256e-04
 Reference value :  1.66260e-04
 Reference value :  1.66307e-04
 Reference value :  1.66500e-04
 Reference value :  1.66500e-04
 Reference value :  1.66501e-04
 Reference value :  1.66502e-04
 Reference value :  1.66503e-04
 Reference value :  1.66504e-04
 Reference value :  1.66505e-04
 Reference value :  1.66508e-04
 Reference value :  1.66511e-04
 Reference value :  1.66514e-04
 Reference value :  1.66517e-04
 Reference value :  1.66529e-04
 Reference value :  1.66539e-04
 Reference value :  1.66555e-04
 Reference value :  1.66626e-04
 Reference value :  1.66750e-04
 Reference value :  1.66750e-04
 Reference value :  1.66751e-04
 Reference value :  1.66752e-04
 Reference value :  1.66753e-04
 Reference value :  1.66755e-04
 Reference value :  1.66761e-04
 Reference value :  1.66869e-04
 Reference value :  1.67000e-04
 Reference value :  1.67000e-04
 Reference value :  1.67000e-04
 Reference value :  1.67001e-04
 Reference value :  1.67002e-04
 Reference value :  1.67002e-04
 Reference value :  1.67003e-04
 Reference value :  1.67004e-04
 Reference value :  1.67005e-04
 Reference value :  1.67006e-04
 Reference value :  1.67007e-04
 Reference value :  1.67009e-04
 Reference value :  1.67011e-04
 Reference value :  1.67022e-04
 Reference value :  1.67080e-04
 Reference value :  1.67250e-04
 Reference value :  1.67250e-04
 Reference value :  1.67250e-04
 Reference value :  1.67250e-04
 Reference value :  1.67251e-04
 Reference value :  1.67251e-04
 Reference value :  1.67252e-04
 Reference value :  1.67253e-04
 Reference value :  1.67253e-04
 Reference value :  1.67254e-04
 Reference value :  1.67256e-04
 Reference value :  1.67258e-04
 Reference value :  1.67261e-04
 Reference value :  1.67275e-04
 Reference value :  1.67381e-04
 Reference value :  1.67500e-04
 Reference value :  1.67500e-04
 Reference value :  1.67500e-04
 Reference value :  1.67501e-04
 Reference value :  1.67502e-04
 Reference value :  1.67502e-04
 Reference value :  1.67503e-04
 Reference value :  1.67504e-04
 Reference value :  1.67505e-04
 Reference value :  1.67507e-04
 Reference value :  1.67510e-04
 Reference value :  1.67512e-04
 Reference value :  1.67514e-04
 Reference value :  1.67517e-04
 Reference value :  1.67522e-04
 Reference value :  1.67541e-04
 Reference value :  1.67655e-04
 Reference value :  1.67750e-04
 Reference value :  1.67750e-04
 Reference value :  1.67751e-04
 Reference value :  1.67751e-04
 Reference value :  1.67753e-04
 Reference value :  1.67754e-04
 Reference value :  1.67755e-04
 Reference value :  1.67759e-04
 Reference value :  1.67787e-04
 Reference value :  1.68000e-04
 Reference value :  1.68000e-04
 Reference value :  1.68000e-04
 Reference value :  1.68000e-04
 Reference value :  1.68001e-04
 Reference value :  1.68002e-04
 Reference value :  1.68003e-04
 Reference value :  1.68004e-04
 Reference value :  1.68006e-04
 Reference value :  1.68006e-04
 Reference value :  1.68008e-04
 Reference value :  1.68010e-04
 Reference value :  1.68020e-04
 Reference value :  1.68152e-04
 Reference value :  1.68250e-04
 Reference value :  1.68250e-04
 Reference value :  1.68250e-04
 Reference value :  1.68251e-04
 Reference value :  1.68253e-04
 Reference value :  1.68253e-04
 Reference value :  1.68254e-04
 Reference value :  1.68256e-04
 Reference value :  1.68260e-04
 Reference value :  1.68282e-04
 Reference value :  1.68457e-04
 Reference value :  1.68500e-04
 Reference value :  1.68500e-04
 Reference value :  1.68500e-04
 Reference value :  1.68501e-04
 Reference value :  1.68502e-04
 Reference value :  1.68503e-04
 Reference value :  1.68504e-04
 Reference value :  1.68505e-04
 Reference value :  1.68506e-04
 Reference value :  1.68510e-04
 Reference value :  1.68511e-04
 Reference value :  1.68512e-04
 Reference value :  1.68514e-04
 Reference value :  1.68515e-04
 Reference value :  1.68517e-04
 Reference value :  1.68521e-04
 Reference value :  1.68529e-04
 Reference value :  1.68546e-04
 Reference value :  1.68555e-04
 Reference value :  1.68567e-04
 Reference value :  1.68598e-04
 Reference value :  1.68658e-04
 Reference value :  1.68750e-04
 Reference value :  1.68750e-04
 Reference value :  1.68750e-04
 Reference value :  1.68750e-04
 Reference value :  1.68750e-04
 Reference value :  1.68751e-04
 Reference value :  1.68751e-04
 Reference value :  1.68752e-04
 Reference value :  1.68753e-04
 Reference value :  1.68755e-04
 Reference value :  1.68757e-04
 Reference value :  1.68765e-04
 Reference value :  1.68815e-04
 Reference value :  1.69000e-04
 Reference value :  1.69000e-04
 Reference value :  1.69000e-04
 Reference value :  1.69000e-04
 Reference value :  1.69000e-04
 Reference value :  1.69001e-04
 Reference value :  1.69002e-04
 Reference value :  1.69002e-04
 Reference value :  1.69003e-04
 Reference value :  1.69004e-04
 Reference value :  1.69006e-04
 Reference value :  1.69006e-04
 Reference value :  1.69008e-04
 Reference value :  1.69010e-04
 Reference value :  1.69012e-04
 Reference value :  1.69152e-04
 Reference value :  1.69250e-04
 Reference value :  1.69250e-04
 Reference value :  1.69251e-04
 Reference value :  1.69253e-04
 Reference value :  1.69253e-04
 Reference value :  1.69254e-04
 Reference value :  1.69256e-04
 Reference value :  1.69260e-04
 Reference value :  1.69282e-04
 Reference value :  1.69500e-04
 Reference value :  1.69500e-04
 Reference value :  1.69500e-04
 Reference value :  1.69501e-04
 Reference value :  1.69502e-04
 Reference value :  1.69502e-04
 Reference value :  1.69503e-04
 Reference value :  1.69505e-04
 Reference value :  1.69506e-04
 Reference value :  1.69508e-04
 Reference value :  1.69512e-04
 Reference value :  1.69565e-04
 Reference value :  1.69750e-04
 Reference value :  1.69750e-04
 Reference value :  1.69750e-04
 Reference value :  1.69751e-04
 Reference value :  1.69752e-04
 Reference value :  1.69753e-04
 Reference value :  1.69755e-04
 Reference value :  1.69756e-04
 Reference value :  1.69762e-04
 Reference value :  1.69822e-04
 Reference value :  1.70000e-04
 Reference value :  1.70000e-04
 Reference value :  1.70000e-04
 Reference value :  1.70000e-04
 Reference value :  1.70000e-04
 Reference value :  1.70000e-04
 Reference value :  1.70002e-04
 Reference value :  1.70002e-04
 Reference value :  1.70003e-04
 Reference value :  1.70004e-04
 Reference value :  1.70006e-04
 Reference value :  1.70022e-04
 Reference value :  1.70026e-04
 Reference value :  1.70029e-04
 Reference value :  1.70032e-04
 Reference value :  1.70036e-04
 Reference value :  1.70042e-04
 Reference value :  1.70053e-04
 Reference value :  1.70079e-04
 Reference value :  1.70157e-04
 Reference value :  1.70250e-04
 Reference value :  1.70250e-04
 Reference value :  1.70250e-04
 Reference value :  1.70251e-04
 Reference value :  1.70251e-04
 Reference value :  1.70253e-04
 Reference value :  1.70254e-04
 Reference value :  1.70255e-04
 Reference value :  1.70261e-04
 Reference value :  1.70364e-04
 Reference value :  1.70500e-04
 Reference value :  1.70500e-04
 Reference value :  1.70501e-04
 Reference value :  1.70502e-04
 Reference value :  1.70502e-04
 Reference value :  1.70503e-04
 Reference value :  1.70504e-04
 Reference value :  1.70506e-04
 Reference value :  1.70507e-04
 Reference value :  1.70509e-04
 Reference value :  1.70512e-04
 Reference value :  1.70513e-04
 Reference value :  1.70516e-04
 Reference value :  1.70527e-04
 Reference value :  1.70639e-04
 Reference value :  1.70750e-04
 Reference value :  1.70750e-04
 Reference value :  1.70750e-04
 Reference value :  1.70751e-04
 Reference value :  1.70752e-04
 Reference value :  1.70753e-04
 Reference value :  1.70754e-04
 Reference value :  1.70755e-04
 Reference value :  1.70758e-04
 Reference value :  1.70782e-04
 Reference value :  1.71000e-04
 Reference value :  1.71000e-04
 Reference value :  1.71000e-04
 Reference value :  1.71000e-04
 Reference value :  1.71001e-04
 Reference value :  1.71002e-04
 Reference value :  1.71002e-04
 Reference value :  1.71003e-04
 Reference value :  1.71004e-04
 Reference value :  1.71005e-04
 Reference value :  1.71007e-04
 Reference value :  1.71011e-04
 Reference value :  1.71013e-04
 Reference value :  1.71015e-04
 Reference value :  1.71017e-04
 Reference value :  1.71024e-04
 Reference value :  1.71072e-04
 Reference value :  1.71250e-04
 Reference value :  1.71250e-04
 Reference value :  1.71250e-04
 Reference value :  1.71251e-04
 Reference value :  1.71252e-04
 Reference value :  1.71253e-04
 Reference value :  1.71255e-04
 Reference value :  1.71257e-04
 Reference value :  1.71272e-04
 Reference value :  1.71487e-04
 Reference value :  1.71500e-04
 Reference value :  1.71500e-04
 Reference value :  1.71500e-04
 Reference value :  1.71501e-04
 Reference value :  1.71502e-04
 Reference value :  1.71503e-04
 Reference value :  1.71504e-04
 Reference value :  1.71506e-04
 Reference value :  1.71508e-04
 Reference value :  1.71510e-04
 Reference value :  1.71515e-04
 Reference value :  1.71547e-04
 Reference value :  1.71750e-04
 Reference value :  1.71750e-04
 Reference value :  1.71750e-04
 Reference value :  1.71750e-04
 Reference value :  1.71751e-04
 Reference value :  1.71751e-04
 Reference value :  1.71752e-04
 Reference value :  1.71753e-04
 Reference value :  1.71753e-04
 Reference value :  1.71754e-04
 Reference value :  1.71756e-04
 Reference value :  1.71760e-04
 Reference value :  1.71782e-04
 Reference value :  1.72000e-04
 Reference value :  1.72000e-04
 Reference value :  1.72000e-04
 Reference value :  1.72001e-04
 Reference value :  1.72002e-04
 Reference value :  1.72003e-04
 Reference value :  1.72004e-04
 Reference value :  1.72006e-04
 Reference value :  1.72007e-04
 Reference value :  1.72010e-04
 Reference value :  1.72011e-04
 Reference value :  1.72013e-04
 Reference value :  1.72015e-04
 Reference value :  1.72017e-04
 Reference value :  1.72021e-04
 Reference value :  1.72037e-04
 Reference value :  1.72046e-04
 Reference value :  1.72059e-04
 Reference value :  1.72080e-04
 Reference value :  1.72096e-04
 Reference value :  1.72116e-04
 Reference value :  1.72210e-04
 Reference value :  1.72250e-04
 Reference value :  1.72250e-04
 Reference value :  1.72251e-04
 Reference value :  1.72251e-04
 Reference value :  1.72252e-04
 Reference value :  1.72253e-04
 Reference value :  1.72255e-04
 Reference value :  1.72261e-04
 Reference value :  1.72313e-04
 Reference value :  1.72500e-04
 Reference value :  1.72500e-04
 Reference value :  1.72500e-04
 Reference value :  1.72501e-04
 Reference value :  1.72502e-04
 Reference value :  1.72503e-04
 Reference value :  1.72505e-04
 Reference value :  1.72506e-04
 Reference value :  1.72507e-04
 Reference value :  1.72510e-04
 Reference value :  1.72522e-04
 Reference value :  1.72643e-04
 Reference value :  1.72750e-04
 Reference value :  1.72750e-04
 Reference value :  1.72750e-04
 Reference value :  1.72750e-04
 Reference value :  1.72751e-04
 Reference value :  1.72751e-04
 Reference value :  1.72752e-04
 Reference value :  1.72753e-04
 Reference value :  1.72753e-04
 Reference value :  1.72754e-04
 Reference value :  1.72756e-04
 Reference value :  1.72758e-04
 Reference value :  1.72761e-04
 Reference value :  1.72775e-04
 Reference value :  1.72880e-04
 Reference value :  1.73000e-04
 Reference value :  1.73000e-04
 Reference value :  1.73000e-04
 Reference value :  1.73001e-04
 Reference value :  1.73002e-04
 Reference value :  1.73003e-04
 Reference value :  1.73004e-04
 Reference value :  1.73005e-04
 Reference value :  1.73008e-04
 Reference value :  1.73009e-04
 Reference value :  1.73011e-04
 Reference value :  1.73014e-04
 Reference value :  1.73017e-04
 Reference value :  1.73025e-04
 Reference value :  1.73032e-04
 Reference value :  1.73039e-04
 Reference value :  1.73072e-04
 Reference value :  1.73156e-04
 Reference value :  1.73250e-04
 Reference value :  1.73250e-04
 Reference value :  1.73250e-04
 Reference value :  1.73251e-04
 Reference value :  1.73252e-04
 Reference value :  1.73253e-04
 Reference value :  1.73254e-04
 Reference value :  1.73255e-04
 Reference value :  1.73259e-04
 Reference value :  1.73315e-04
 Reference value :  1.73500e-04
 Reference value :  1.73500e-04
 Reference value :  1.73500e-04
 Reference value :  1.73501e-04
 Reference value :  1.73502e-04
 Reference value :  1.73503e-04
 Reference value :  1.73504e-04
 Reference value :  1.73506e-04
 Reference value :  1.73507e-04
 Reference value :  1.73509e-04
 Reference value :  1.73516e-04
 Reference value :  1.73653e-04
 Reference value :  1.73750e-04
 Reference value :  1.73750e-04
 Reference value :  1.73751e-04
 Reference value :  1.73753e-04
 Reference value :  1.73755e-04
 Reference value :  1.73757e-04
 Reference value :  1.73782e-04
 Reference value :  1.74000e-04
 Reference value :  1.74000e-04
 Reference value :  1.74001e-04
 Reference value :  1.74002e-04
 Reference value :  1.74003e-04
 Reference value :  1.74004e-04
 Reference value :  1.74006e-04
 Reference value :  1.74010e-04
 Reference value :  1.74012e-04
 Reference value :  1.74014e-04
 Reference value :  1.74016e-04
 Reference value :  1.74021e-04
 Reference value :  1.74043e-04
 Reference value :  1.74053e-04
 Reference value :  1.74065e-04
 Reference value :  1.74099e-04
 Reference value :  1.74121e-04
 Reference value :  1.74134e-04
 Reference value :  1.74142e-04
 Reference value :  1.74155e-04
 Reference value :  1.74241e-04
 Reference value :  1.74250e-04
 Reference value :  1.74250e-04
 Reference value :  1.74251e-04
 Reference value :  1.74251e-04
 Reference value :  1.74252e-04
 Reference value :  1.74253e-04
 Reference value :  1.74255e-04
 Reference value :  1.74257e-04
 Reference value :  1.74265e-04
 Reference value :  1.74315e-04
 Reference value :  1.74500e-04
 Reference value :  1.74500e-04
 Reference value :  1.74500e-04
 Reference value :  1.74500e-04
 Reference value :  1.74501e-04
 Reference value :  1.74501e-04
 Reference value :  1.74502e-04
 Reference value :  1.74503e-04
 Reference value :  1.74504e-04
 Reference value :  1.74506e-04
 Reference value :  1.74507e-04
 Reference value :  1.74509e-04
 Reference value :  1.74515e-04
 Reference value :  1.74650e-04
 Reference value :  1.74750e-04
 Reference value :  1.74750e-04
 Reference value :  1.74751e-04
 Reference value :  1.74752e-04
 Reference value :  1.74754e-04
 Reference value :  1.74756e-04
 Reference value :  1.74782e-04
 Reference value :  1.75000e-04
 Reference value :  1.75000e-04
 Reference value :  1.75000e-04
 Reference value :  1.75001e-04
 Reference value :  1.75002e-04
 Reference value :  1.75003e-04
 Reference value :  1.75005e-04
 Reference value :  1.75008e-04
 Reference value :  1.75011e-04
 Reference value :  1.75013e-04
 Reference value :  1.75015e-04
 Reference value :  1.75021e-04
 Reference value :  1.75033e-04
 Reference value :  1.75044e-04
 Reference value :  1.75061e-04
 Reference value :  1.75100e-04
 Reference value :  1.75250e-04
 Reference value :  1.75250e-04
 Reference value :  1.75250e-04
 Reference value :  1.75251e-04
 Reference value :  1.75252e-04
 Reference value :  1.75254e-04
 Reference value :  1.75256e-04
 Reference value :  1.75265e-04
 Reference value :  1.75369e-04
 Reference value :  1.75425e-04
 Reference value :  1.75500e-04
 Reference value :  1.75500e-04
 Reference value :  1.75500e-04
 Reference value :  1.75501e-04
 Reference value :  1.75502e-04
 Reference value :  1.75503e-04
 Reference value :  1.75504e-04
 Reference value :  1.75506e-04
 Reference value :  1.75506e-04
 Reference value :  1.75508e-04
 Reference value :  1.75510e-04
 Reference value :  1.75521e-04
 Reference value :  1.75575e-04
 Reference value :  1.75750e-04
 Reference value :  1.75750e-04
 Reference value :  1.75750e-04
 Reference value :  1.75751e-04
 Reference value :  1.75751e-04
 Reference value :  1.75753e-04
 Reference value :  1.75754e-04
 Reference value :  1.75755e-04
 Reference value :  1.75757e-04
 Reference value :  1.75770e-04
 Reference value :  1.75958e-04
 Reference value :  1.76000e-04
 Reference value :  1.76000e-04
 Reference value :  1.76000e-04
 Reference value :  1.76001e-04
 Reference value :  1.76002e-04
 Reference value :  1.76003e-04
 Reference value :  1.76004e-04
 Reference value :  1.76005e-04
 Reference value :  1.76007e-04
 Reference value :  1.76011e-04
 Reference value :  1.76014e-04
 Reference value :  1.76019e-04
 Reference value :  1.76032e-04
 Reference value :  1.76042e-04
 Reference value :  1.76080e-04
 Reference value :  1.76250e-04
 Reference value :  1.76250e-04
 Reference value :  1.76251e-04
 Reference value :  1.76253e-04
 Reference value :  1.76254e-04
 Reference value :  1.76256e-04
 Reference value :  1.76265e-04
 Reference value :  1.76369e-04
 Reference value :  1.76500e-04
 Reference value :  1.76500e-04
 Reference value :  1.76500e-04
 Reference value :  1.76501e-04
 Reference value :  1.76502e-04
 Reference value :  1.76503e-04
 Reference value :  1.76505e-04
 Reference value :  1.76506e-04
 Reference value :  1.76507e-04
 Reference value :  1.76510e-04
 Reference value :  1.76522e-04
 Reference value :  1.76643e-04
 Reference value :  1.76750e-04
 Reference value :  1.76750e-04
 Reference value :  1.76751e-04
 Reference value :  1.76751e-04
 Reference value :  1.76753e-04
 Reference value :  1.76754e-04
 Reference value :  1.76756e-04
 Reference value :  1.76758e-04
 Reference value :  1.76767e-04
 Reference value :  1.76998e-04
 Reference value :  1.77000e-04
 Reference value :  1.77000e-04
 Reference value :  1.77001e-04
 Reference value :  1.77002e-04
 Reference value :  1.77003e-04
 Reference value :  1.77005e-04
 Reference value :  1.77008e-04
 Reference value :  1.77010e-04
 Reference value :  1.77012e-04
 Reference value :  1.77014e-04
 Reference value :  1.77017e-04
 Reference value :  1.77023e-04
 Reference value :  1.77049e-04
 Reference value :  1.77244e-04
 Reference value :  1.77250e-04
 Reference value :  1.77250e-04
 Reference value :  1.77251e-04
 Reference value :  1.77251e-04
 Reference value :  1.77253e-04
 Reference value :  1.77254e-04
 Reference value :  1.77256e-04
 Reference value :  1.77265e-04
 Reference value :  1.77493e-04
 Reference value :  1.77500e-04
 Reference value :  1.77500e-04
 Reference value :  1.77501e-04
 Reference value :  1.77502e-04
 Reference value :  1.77503e-04
 Reference value :  1.77505e-04
 Reference value :  1.77506e-04
 Reference value :  1.77507e-04
 Reference value :  1.77510e-04
 Reference value :  1.77522e-04
 Reference value :  1.77579e-04
 Reference value :  1.77750e-04
 Reference value :  1.77750e-04
 Reference value :  1.77750e-04
 Reference value :  1.77751e-04
 Reference value :  1.77751e-04
 Reference value :  1.77753e-04
 Reference value :  1.77753e-04
 Reference value :  1.77754e-04
 Reference value :  1.77756e-04
 Reference value :  1.77757e-04
 Reference value :  1.77760e-04
 Reference value :  1.77767e-04
 Reference value :  1.77876e-04
 Reference value :  1.78000e-04
 Reference value :  1.78000e-04
 Reference value :  1.78000e-04
 Reference value :  1.78001e-04
 Reference value :  1.78001e-04
 Reference value :  1.78002e-04
 Reference value :  1.78004e-04
 Reference value :  1.78005e-04
 Reference value :  1.78007e-04
 Reference value :  1.78010e-04
 Reference value :  1.78017e-04
 Reference value :  1.78024e-04
 Reference value :  1.78034e-04
 Reference value :  1.78045e-04
 Reference value :  1.78067e-04
 Reference value :  1.78090e-04
 Reference value :  1.78182e-04
 Reference value :  1.78250e-04
 Reference value :  1.78250e-04
 Reference value :  1.78251e-04
 Reference value :  1.78253e-04
 Reference value :  1.78256e-04
 Reference value :  1.78291e-04
No. of Data Rows : 25814
ngspice-44 done
