
Note: Compatibility modes selected: hs a


Circuit: ** sch_path: /home/samantha/cace/sar-adc-using-sky130-pdk/runs/run_2025-08-29_13-03-21/parameters/power/run_1/power_consumption.sch

option SCALE: Scale is set to 1e-06 for instance and model parameters
option SCALE: Scale is set to 1e-06 for instance and model parameters
option SCALE: Scale is set to 1e-06 for instance and model parameters
option SCALE: Scale is set to 1e-06 for instance and model parameters
Doing analysis at TEMP = 27.000000 and TNOM = 27.000000

Using KLU as Direct Linear Solver
Operating point simulation skipped by 'uic',
  now using transient initial conditions.
 Reference value :  5.00000e-12
 Reference value :  5.14000e-12
 Reference value :  5.98000e-12
 Reference value :  8.70112e-12
 Reference value :  1.62480e-11
 Reference value :  3.59512e-11
 Reference value :  6.22221e-11
 Reference value :  2.03675e-10
 Reference value :  3.64826e-10
 Reference value :  5.00000e-10
 Reference value :  5.15353e-10
 Reference value :  5.46058e-10
 Reference value :  7.30289e-10
 Reference value :  9.75930e-10
 Reference value :  1.27438e-09
 Reference value :  1.63603e-09
 Reference value :  2.16663e-09
 Reference value :  3.51502e-09
 Reference value :  4.40836e-09
 Reference value :  6.76701e-09
 Reference value :  7.66718e-09
 Reference value :  9.42558e-09
 Reference value :  1.13137e-08
 Reference value :  1.23324e-08
 Reference value :  1.31631e-08
 Reference value :  1.47939e-08
 Reference value :  1.72129e-08
 Reference value :  2.01040e-08
 Reference value :  2.69912e-08
 Reference value :  3.08121e-08
 Reference value :  3.91618e-08
 Reference value :  5.30474e-08
 Reference value :  8.17318e-08
 Reference value :  1.79212e-07
 Reference value :  5.00000e-07
 Reference value :  5.67707e-07
 Reference value :  7.79436e-07
 Reference value :  9.39867e-07
 Reference value :  1.00050e-06
 Reference value :  1.00065e-06
 Reference value :  1.00085e-06
 Reference value :  1.00103e-06
 Reference value :  1.00121e-06
 Reference value :  1.00139e-06
 Reference value :  1.00197e-06
 Reference value :  1.00282e-06
 Reference value :  1.00419e-06
 Reference value :  1.00473e-06
 Reference value :  1.00601e-06
 Reference value :  1.00764e-06
 Reference value :  1.01047e-06
 Reference value :  1.01663e-06
 Reference value :  1.03526e-06
 Reference value :  1.08210e-06
 Reference value :  1.12108e-06
 Reference value :  1.14494e-06
 Reference value :  1.20609e-06
 Reference value :  1.25822e-06
 Reference value :  1.36410e-06
 Reference value :  1.51474e-06
 Reference value :  1.92331e-06
 Reference value :  2.00005e-06
 Reference value :  2.00035e-06
 Reference value :  2.00053e-06
 Reference value :  2.00074e-06
 Reference value :  2.00102e-06
 Reference value :  2.00139e-06
 Reference value :  2.00179e-06
 Reference value :  2.00217e-06
 Reference value :  2.00261e-06
 Reference value :  2.00312e-06
 Reference value :  2.00443e-06
 Reference value :  2.00618e-06
 Reference value :  2.00877e-06
 Reference value :  2.00995e-06
 Reference value :  2.01121e-06
 Reference value :  2.01272e-06
 Reference value :  2.01439e-06
 Reference value :  2.01794e-06
 Reference value :  2.02363e-06
 Reference value :  2.03748e-06
 Reference value :  2.08571e-06
 Reference value :  2.26933e-06
 Reference value :  3.00050e-06
 Reference value :  3.00065e-06
 Reference value :  3.00100e-06
 Reference value :  3.00103e-06
 Reference value :  3.00124e-06
 Reference value :  3.00151e-06
 Reference value :  3.00219e-06
 Reference value :  3.00265e-06
 Reference value :  3.00313e-06
 Reference value :  3.00378e-06
 Reference value :  3.00430e-06
 Reference value :  3.00492e-06
 Reference value :  3.00548e-06
 Reference value :  3.00685e-06
 Reference value :  3.00846e-06
 Reference value :  3.00946e-06
 Reference value :  3.01223e-06
 Reference value :  3.01738e-06
 Reference value :  3.03027e-06
 Reference value :  3.06276e-06
 Reference value :  3.15262e-06
 Reference value :  3.50422e-06
 Reference value :  4.00000e-06
 Reference value :  4.00005e-06
 Reference value :  4.00035e-06
 Reference value :  4.00053e-06
 Reference value :  4.00074e-06
 Reference value :  4.00139e-06
 Reference value :  4.00221e-06
 Reference value :  4.00321e-06
 Reference value :  4.00429e-06
 Reference value :  4.00488e-06
 Reference value :  4.00544e-06
 Reference value :  4.00613e-06
 Reference value :  4.00678e-06
 Reference value :  4.00858e-06
 Reference value :  4.00969e-06
 Reference value :  4.01077e-06
 Reference value :  4.01185e-06
 Reference value :  4.01298e-06
 Reference value :  4.01384e-06
 Reference value :  4.01563e-06
 Reference value :  4.01663e-06
 Reference value :  4.01761e-06
 Reference value :  4.01878e-06
 Reference value :  4.02000e-06
 Reference value :  4.02093e-06
 Reference value :  4.02336e-06
 Reference value :  4.02681e-06
 Reference value :  4.03315e-06
 Reference value :  4.05140e-06
 Reference value :  4.07512e-06
 Reference value :  4.10940e-06
 Reference value :  4.22642e-06
 Reference value :  4.44671e-06
 Reference value :  4.57748e-06
 Reference value :  4.98336e-06
 Reference value :  5.00055e-06
 Reference value :  5.00085e-06
 Reference value :  5.00103e-06
 Reference value :  5.00124e-06
 Reference value :  5.00178e-06
 Reference value :  5.00219e-06
 Reference value :  5.00314e-06
 Reference value :  5.00381e-06
 Reference value :  5.00434e-06
 Reference value :  5.00497e-06
 Reference value :  5.00555e-06
 Reference value :  5.00710e-06
 Reference value :  5.00806e-06
 Reference value :  5.01199e-06
 Reference value :  5.02246e-06
 Reference value :  5.06436e-06
 Reference value :  5.23197e-06
 Reference value :  5.45544e-06
 Reference value :  6.00000e-06
 Reference value :  6.00015e-06
 Reference value :  6.00050e-06
 Reference value :  6.00060e-06
 Reference value :  6.00102e-06
 Reference value :  6.00139e-06
 Reference value :  6.00221e-06
 Reference value :  6.00320e-06
 Reference value :  6.00441e-06
 Reference value :  6.00501e-06
 Reference value :  6.00598e-06
 Reference value :  6.00682e-06
 Reference value :  6.00874e-06
 Reference value :  6.01093e-06
 Reference value :  6.01460e-06
 Reference value :  6.02471e-06
 Reference value :  6.05920e-06
 Reference value :  6.18083e-06
 Reference value :  6.65958e-06
 Reference value :  7.00055e-06
 Reference value :  7.00085e-06
 Reference value :  7.00103e-06
 Reference value :  7.00124e-06
 Reference value :  7.00178e-06
 Reference value :  7.00219e-06
 Reference value :  7.00314e-06
 Reference value :  7.00380e-06
 Reference value :  7.00431e-06
 Reference value :  7.00547e-06
 Reference value :  7.00682e-06
 Reference value :  7.00923e-06
 Reference value :  7.01434e-06
 Reference value :  7.02958e-06
 Reference value :  7.09055e-06
 Reference value :  7.33442e-06
 Reference value :  8.00000e-06
 Reference value :  8.00015e-06
 Reference value :  8.00050e-06
 Reference value :  8.00060e-06
 Reference value :  8.00102e-06
 Reference value :  8.00139e-06
 Reference value :  8.00221e-06
 Reference value :  8.00321e-06
 Reference value :  8.00428e-06
 Reference value :  8.00484e-06
 Reference value :  8.00540e-06
 Reference value :  8.00601e-06
 Reference value :  8.00744e-06
 Reference value :  8.01003e-06
 Reference value :  8.01162e-06
 Reference value :  8.01294e-06
 Reference value :  8.01403e-06
 Reference value :  8.01621e-06
 Reference value :  8.01721e-06
 Reference value :  8.01946e-06
 Reference value :  8.02280e-06
 Reference value :  8.03075e-06
 Reference value :  8.05326e-06
 Reference value :  8.10786e-06
 Reference value :  8.29191e-06
 Reference value :  8.57809e-06
 Reference value :  9.00050e-06
 Reference value :  9.00065e-06
 Reference value :  9.00100e-06
 Reference value :  9.00103e-06
 Reference value :  9.00124e-06
 Reference value :  9.00178e-06
 Reference value :  9.00219e-06
 Reference value :  9.00266e-06
 Reference value :  9.00381e-06
 Reference value :  9.00434e-06
 Reference value :  9.00554e-06
 Reference value :  9.00709e-06
 Reference value :  9.00971e-06
 Reference value :  9.01546e-06
 Reference value :  9.03636e-06
 Reference value :  9.11995e-06
 Reference value :  9.45432e-06
 Reference value :  1.00000e-05
 Reference value :  1.00001e-05
 Reference value :  1.00005e-05
 Reference value :  1.00006e-05
 Reference value :  1.00007e-05
 Reference value :  1.00014e-05
 Reference value :  1.00022e-05
 Reference value :  1.00032e-05
 Reference value :  1.00044e-05
 Reference value :  1.00050e-05
 Reference value :  1.00060e-05
 Reference value :  1.00068e-05
 Reference value :  1.00087e-05
 Reference value :  1.00098e-05
 Reference value :  1.00123e-05
 Reference value :  1.00182e-05
 Reference value :  1.00371e-05
 Reference value :  1.01015e-05
 Reference value :  1.03419e-05
 Reference value :  1.10005e-05
 Reference value :  1.10006e-05
 Reference value :  1.10008e-05
 Reference value :  1.10010e-05
 Reference value :  1.10012e-05
 Reference value :  1.10018e-05
 Reference value :  1.10022e-05
 Reference value :  1.10027e-05
 Reference value :  1.10031e-05
 Reference value :  1.10038e-05
 Reference value :  1.10043e-05
 Reference value :  1.10055e-05
 Reference value :  1.10068e-05
 Reference value :  1.10092e-05
 Reference value :  1.10143e-05
 Reference value :  1.10296e-05
 Reference value :  1.10904e-05
 Reference value :  1.13340e-05
 Reference value :  1.20000e-05
 Reference value :  1.20001e-05
 Reference value :  1.20005e-05
 Reference value :  1.20006e-05
 Reference value :  1.20010e-05
 Reference value :  1.20014e-05
 Reference value :  1.20022e-05
 Reference value :  1.20032e-05
 Reference value :  1.20043e-05
 Reference value :  1.20048e-05
 Reference value :  1.20054e-05
 Reference value :  1.20060e-05
 Reference value :  1.20074e-05
 Reference value :  1.20100e-05
 Reference value :  1.20116e-05
 Reference value :  1.20129e-05
 Reference value :  1.20140e-05
 Reference value :  1.20151e-05
 Reference value :  1.20162e-05
 Reference value :  1.20172e-05
 Reference value :  1.20195e-05
 Reference value :  1.20228e-05
 Reference value :  1.20307e-05
 Reference value :  1.20532e-05
 Reference value :  1.21134e-05
 Reference value :  1.22354e-05
 Reference value :  1.23082e-05
 Reference value :  1.24112e-05
 Reference value :  1.26171e-05
 Reference value :  1.30006e-05
 Reference value :  1.30007e-05
 Reference value :  1.30009e-05
 Reference value :  1.30010e-05
 Reference value :  1.30012e-05
 Reference value :  1.30015e-05
 Reference value :  1.30018e-05
 Reference value :  1.30022e-05
 Reference value :  1.30027e-05
 Reference value :  1.30038e-05
 Reference value :  1.30043e-05
 Reference value :  1.30050e-05
 Reference value :  1.30055e-05
 Reference value :  1.30061e-05
 Reference value :  1.30071e-05
 Reference value :  1.30097e-05
 Reference value :  1.30154e-05
 Reference value :  1.30363e-05
 Reference value :  1.31194e-05
 Reference value :  1.34522e-05
 Reference value :  1.40000e-05
 Reference value :  1.40002e-05
 Reference value :  1.40005e-05
 Reference value :  1.40005e-05
 Reference value :  1.40006e-05
 Reference value :  1.40007e-05
 Reference value :  1.40010e-05
 Reference value :  1.40014e-05
 Reference value :  1.40018e-05
 Reference value :  1.40022e-05
 Reference value :  1.40032e-05
 Reference value :  1.40044e-05
 Reference value :  1.40050e-05
 Reference value :  1.40060e-05
 Reference value :  1.40068e-05
 Reference value :  1.40087e-05
 Reference value :  1.40109e-05
 Reference value :  1.40146e-05
 Reference value :  1.40247e-05
 Reference value :  1.40592e-05
 Reference value :  1.41805e-05
 Reference value :  1.46580e-05
 Reference value :  1.50005e-05
 Reference value :  1.50009e-05
 Reference value :  1.50010e-05
 Reference value :  1.50012e-05
 Reference value :  1.50015e-05
 Reference value :  1.50022e-05
 Reference value :  1.50027e-05
 Reference value :  1.50038e-05
 Reference value :  1.50043e-05
 Reference value :  1.50055e-05
 Reference value :  1.50068e-05
 Reference value :  1.50092e-05
 Reference value :  1.50143e-05
 Reference value :  1.50295e-05
 Reference value :  1.50904e-05
 Reference value :  1.53338e-05
 Reference value :  1.60000e-05
 Reference value :  1.60001e-05
 Reference value :  1.60005e-05
 Reference value :  1.60006e-05
 Reference value :  1.60010e-05
 Reference value :  1.60014e-05
 Reference value :  1.60018e-05
 Reference value :  1.60022e-05
 Reference value :  1.60032e-05
 Reference value :  1.60038e-05
 Reference value :  1.60043e-05
 Reference value :  1.60048e-05
 Reference value :  1.60054e-05
 Reference value :  1.60060e-05
 Reference value :  1.60074e-05
 Reference value :  1.60100e-05
 Reference value :  1.60116e-05
 Reference value :  1.60133e-05
 Reference value :  1.60145e-05
 Reference value :  1.60156e-05
 Reference value :  1.60168e-05
 Reference value :  1.60193e-05
 Reference value :  1.60229e-05
 Reference value :  1.60296e-05
 Reference value :  1.60479e-05
 Reference value :  1.60663e-05
 Reference value :  1.61000e-05
 Reference value :  1.61379e-05
 Reference value :  1.61938e-05
 Reference value :  1.63119e-05
 Reference value :  1.66628e-05
 Reference value :  1.70005e-05
 Reference value :  1.70006e-05
 Reference value :  1.70007e-05
 Reference value :  1.70010e-05
 Reference value :  1.70010e-05
 Reference value :  1.70012e-05
 Reference value :  1.70014e-05
 Reference value :  1.70021e-05
 Reference value :  1.70026e-05
 Reference value :  1.70038e-05
 Reference value :  1.70045e-05
 Reference value :  1.70050e-05
 Reference value :  1.70062e-05
 Reference value :  1.70070e-05
 Reference value :  1.70095e-05
 Reference value :  1.70151e-05
 Reference value :  1.70328e-05
 Reference value :  1.70554e-05
 Reference value :  1.71906e-05
 Reference value :  1.77315e-05
 Reference value :  1.80001e-05
 Reference value :  1.80004e-05
 Reference value :  1.80005e-05
 Reference value :  1.80007e-05
 Reference value :  1.80015e-05
 Reference value :  1.80020e-05
 Reference value :  1.80025e-05
 Reference value :  1.80030e-05
 Reference value :  1.80035e-05
 Reference value :  1.80041e-05
 Reference value :  1.80047e-05
 Reference value :  1.80062e-05
 Reference value :  1.80068e-05
 Reference value :  1.80086e-05
 Reference value :  1.80095e-05
 Reference value :  1.80104e-05
 Reference value :  1.80115e-05
 Reference value :  1.80151e-05
 Reference value :  1.80192e-05
 Reference value :  1.80413e-05
 Reference value :  1.80679e-05
 Reference value :  1.82279e-05
 Reference value :  1.88680e-05
 Reference value :  1.90006e-05
 Reference value :  1.90007e-05
 Reference value :  1.90010e-05
 Reference value :  1.90011e-05
 Reference value :  1.90014e-05
 Reference value :  1.90017e-05
 Reference value :  1.90021e-05
 Reference value :  1.90026e-05
 Reference value :  1.90031e-05
 Reference value :  1.90045e-05
 Reference value :  1.90050e-05
 Reference value :  1.90063e-05
 Reference value :  1.90079e-05
 Reference value :  1.90118e-05
 Reference value :  1.90214e-05
 Reference value :  1.90568e-05
 Reference value :  1.91925e-05
 Reference value :  1.97352e-05
 Reference value :  2.00001e-05
 Reference value :  2.00004e-05
 Reference value :  2.00005e-05
 Reference value :  2.00006e-05
 Reference value :  2.00010e-05
 Reference value :  2.00015e-05
 Reference value :  2.00020e-05
 Reference value :  2.00025e-05
 Reference value :  2.00030e-05
 Reference value :  2.00035e-05
 Reference value :  2.00041e-05
 Reference value :  2.00046e-05
 Reference value :  2.00056e-05
 Reference value :  2.00062e-05
 Reference value :  2.00076e-05
 Reference value :  2.00090e-05
 Reference value :  2.00106e-05
 Reference value :  2.00120e-05
 Reference value :  2.00135e-05
 Reference value :  2.00146e-05
 Reference value :  2.00155e-05
 Reference value :  2.00165e-05
 Reference value :  2.00176e-05
 Reference value :  2.00190e-05
 Reference value :  2.00223e-05
 Reference value :  2.00294e-05
 Reference value :  2.00378e-05
 Reference value :  2.00638e-05
 Reference value :  2.00897e-05
 Reference value :  2.01154e-05
 Reference value :  2.01433e-05
 Reference value :  2.02083e-05
 Reference value :  2.03332e-05
 Reference value :  2.06447e-05
 Reference value :  2.10005e-05
 Reference value :  2.10006e-05
 Reference value :  2.10010e-05
 Reference value :  2.10010e-05
 Reference value :  2.10012e-05
 Reference value :  2.10014e-05
 Reference value :  2.10017e-05
 Reference value :  2.10021e-05
 Reference value :  2.10031e-05
 Reference value :  2.10038e-05
 Reference value :  2.10045e-05
 Reference value :  2.10050e-05
 Reference value :  2.10063e-05
 Reference value :  2.10071e-05
 Reference value :  2.10096e-05
 Reference value :  2.10152e-05
 Reference value :  2.10337e-05
 Reference value :  2.11047e-05
 Reference value :  2.13888e-05
 Reference value :  2.20000e-05
 Reference value :  2.20000e-05
 Reference value :  2.20004e-05
 Reference value :  2.20005e-05
 Reference value :  2.20006e-05
 Reference value :  2.20010e-05
 Reference value :  2.20015e-05
 Reference value :  2.20020e-05
 Reference value :  2.20025e-05
 Reference value :  2.20030e-05
 Reference value :  2.20035e-05
 Reference value :  2.20047e-05
 Reference value :  2.20062e-05
 Reference value :  2.20068e-05
 Reference value :  2.20076e-05
 Reference value :  2.20086e-05
 Reference value :  2.20104e-05
 Reference value :  2.20115e-05
 Reference value :  2.20151e-05
 Reference value :  2.20267e-05
 Reference value :  2.20691e-05
 Reference value :  2.22336e-05
 Reference value :  2.28914e-05
 Reference value :  2.30005e-05
 Reference value :  2.30006e-05
 Reference value :  2.30010e-05
 Reference value :  2.30010e-05
 Reference value :  2.30012e-05
 Reference value :  2.30014e-05
 Reference value :  2.30021e-05
 Reference value :  2.30031e-05
 Reference value :  2.30045e-05
 Reference value :  2.30050e-05
 Reference value :  2.30063e-05
 Reference value :  2.30079e-05
 Reference value :  2.30118e-05
 Reference value :  2.30213e-05
 Reference value :  2.30567e-05
 Reference value :  2.31926e-05
 Reference value :  2.37361e-05
 Reference value :  2.40001e-05
 Reference value :  2.40002e-05
 Reference value :  2.40005e-05
 Reference value :  2.40006e-05
 Reference value :  2.40010e-05
 Reference value :  2.40020e-05
 Reference value :  2.40025e-05
 Reference value :  2.40030e-05
 Reference value :  2.40035e-05
 Reference value :  2.40046e-05
 Reference value :  2.40056e-05
 Reference value :  2.40069e-05
 Reference value :  2.40090e-05
 Reference value :  2.40106e-05
 Reference value :  2.40120e-05
 Reference value :  2.40135e-05
 Reference value :  2.40146e-05
 Reference value :  2.40155e-05
 Reference value :  2.40165e-05
 Reference value :  2.40176e-05
 Reference value :  2.40190e-05
 Reference value :  2.40224e-05
 Reference value :  2.40295e-05
 Reference value :  2.40365e-05
 Reference value :  2.40542e-05
 Reference value :  2.40987e-05
 Reference value :  2.42307e-05
 Reference value :  2.44420e-05
 Reference value :  2.48659e-05
 Reference value :  2.50005e-05
 Reference value :  2.50008e-05
 Reference value :  2.50010e-05
 Reference value :  2.50010e-05
 Reference value :  2.50012e-05
 Reference value :  2.50014e-05
 Reference value :  2.50021e-05
 Reference value :  2.50026e-05
 Reference value :  2.50038e-05
 Reference value :  2.50045e-05
 Reference value :  2.50050e-05
 Reference value :  2.50063e-05
 Reference value :  2.50071e-05
 Reference value :  2.50096e-05
 Reference value :  2.50152e-05
 Reference value :  2.50337e-05
 Reference value :  2.51044e-05
 Reference value :  2.53873e-05
 Reference value :  2.60000e-05
 Reference value :  2.60002e-05
 Reference value :  2.60005e-05
 Reference value :  2.60006e-05
 Reference value :  2.60010e-05
 Reference value :  2.60015e-05
 Reference value :  2.60025e-05
 Reference value :  2.60035e-05
 Reference value :  2.60047e-05
 Reference value :  2.60053e-05
 Reference value :  2.60068e-05
 Reference value :  2.60076e-05
 Reference value :  2.60095e-05
 Reference value :  2.60104e-05
 Reference value :  2.60115e-05
 Reference value :  2.60151e-05
 Reference value :  2.60267e-05
 Reference value :  2.60688e-05
 Reference value :  2.62324e-05
 Reference value :  2.68868e-05
 Reference value :  2.70006e-05
 Reference value :  2.70009e-05
 Reference value :  2.70010e-05
 Reference value :  2.70012e-05
 Reference value :  2.70014e-05
 Reference value :  2.70021e-05
 Reference value :  2.70026e-05
 Reference value :  2.70038e-05
 Reference value :  2.70045e-05
 Reference value :  2.70050e-05
 Reference value :  2.70056e-05
 Reference value :  2.70071e-05
 Reference value :  2.70095e-05
 Reference value :  2.70152e-05
 Reference value :  2.70336e-05
 Reference value :  2.71019e-05
 Reference value :  2.73738e-05
 Reference value :  2.80000e-05
 Reference value :  2.80001e-05
 Reference value :  2.80005e-05
 Reference value :  2.80005e-05
 Reference value :  2.80007e-05
 Reference value :  2.80015e-05
 Reference value :  2.80025e-05
 Reference value :  2.80035e-05
 Reference value :  2.80046e-05
 Reference value :  2.80052e-05
 Reference value :  2.80056e-05
 Reference value :  2.80069e-05
 Reference value :  2.80076e-05
 Reference value :  2.80106e-05
 Reference value :  2.80120e-05
 Reference value :  2.80135e-05
 Reference value :  2.80146e-05
 Reference value :  2.80155e-05
 Reference value :  2.80166e-05
 Reference value :  2.80177e-05
 Reference value :  2.80190e-05
 Reference value :  2.80203e-05
 Reference value :  2.80249e-05
 Reference value :  2.80346e-05
 Reference value :  2.80635e-05
 Reference value :  2.81480e-05
 Reference value :  2.84135e-05
 Reference value :  2.90005e-05
 Reference value :  2.90007e-05
 Reference value :  2.90009e-05
 Reference value :  2.90010e-05
 Reference value :  2.90010e-05
 Reference value :  2.90011e-05
 Reference value :  2.90012e-05
 Reference value :  2.90014e-05
 Reference value :  2.90017e-05
 Reference value :  2.90021e-05
 Reference value :  2.90031e-05
 Reference value :  2.90038e-05
 Reference value :  2.90045e-05
 Reference value :  2.90050e-05
 Reference value :  2.90063e-05
 Reference value :  2.90071e-05
 Reference value :  2.90079e-05
 Reference value :  2.90118e-05
 Reference value :  2.90214e-05
 Reference value :  2.90572e-05
 Reference value :  2.91981e-05
 Reference value :  2.97618e-05
 Reference value :  3.00001e-05
 Reference value :  3.00004e-05
 Reference value :  3.00005e-05
 Reference value :  3.00006e-05
 Reference value :  3.00010e-05
 Reference value :  3.00020e-05
 Reference value :  3.00025e-05
 Reference value :  3.00030e-05
 Reference value :  3.00035e-05
 Reference value :  3.00047e-05
 Reference value :  3.00062e-05
 Reference value :  3.00068e-05
 Reference value :  3.00086e-05
 Reference value :  3.00095e-05
 Reference value :  3.00115e-05
 Reference value :  3.00151e-05
 Reference value :  3.00267e-05
 Reference value :  3.00686e-05
 Reference value :  3.01229e-05
 Reference value :  3.04487e-05
 Reference value :  3.10005e-05
 Reference value :  3.10005e-05
 Reference value :  3.10008e-05
 Reference value :  3.10010e-05
 Reference value :  3.10010e-05
 Reference value :  3.10012e-05
 Reference value :  3.10014e-05
 Reference value :  3.10021e-05
 Reference value :  3.10026e-05
 Reference value :  3.10038e-05
 Reference value :  3.10045e-05
 Reference value :  3.10050e-05
 Reference value :  3.10063e-05
 Reference value :  3.10071e-05
 Reference value :  3.10095e-05
 Reference value :  3.10152e-05
 Reference value :  3.10336e-05
 Reference value :  3.11018e-05
 Reference value :  3.13738e-05
 Reference value :  3.20000e-05
 Reference value :  3.20001e-05
 Reference value :  3.20005e-05
 Reference value :  3.20006e-05
 Reference value :  3.20010e-05
 Reference value :  3.20020e-05
 Reference value :  3.20025e-05
 Reference value :  3.20035e-05
 Reference value :  3.20046e-05
 Reference value :  3.20056e-05
 Reference value :  3.20062e-05
 Reference value :  3.20076e-05
 Reference value :  3.20083e-05
 Reference value :  3.20101e-05
 Reference value :  3.20132e-05
 Reference value :  3.20247e-05
 Reference value :  3.20695e-05
 Reference value :  3.22450e-05
 Reference value :  3.29471e-05
 Reference value :  3.30006e-05
 Reference value :  3.30009e-05
 Reference value :  3.30010e-05
 Reference value :  3.30011e-05
 Reference value :  3.30015e-05
 Reference value :  3.30022e-05
 Reference value :  3.30027e-05
 Reference value :  3.30039e-05
 Reference value :  3.30046e-05
 Reference value :  3.30065e-05
 Reference value :  3.30090e-05
 Reference value :  3.30134e-05
 Reference value :  3.30263e-05
 Reference value :  3.30780e-05
 Reference value :  3.32844e-05
 Reference value :  3.40000e-05
No. of Data Rows : 1208
ngspice-44 done
