
Note: Compatibility modes selected: hs a


Circuit: ** sch_path: /home/ece/cace/sar-adc-using-sky130-pdk/runs/run_2025-09-13_04-36-38/parameters/dnl/run_0/sar_output_dnl.sch

option SCALE: Scale is set to 1e-06 for instance and model parameters
option SCALE: Scale is set to 1e-06 for instance and model parameters
option SCALE: Scale is set to 1e-06 for instance and model parameters
option SCALE: Scale is set to 1e-06 for instance and model parameters
Doing analysis at TEMP = 125.000000 and TNOM = 27.000000

Using KLU as Direct Linear Solver
Operating point simulation skipped by 'uic',
  now using transient initial conditions.
 Reference value :  1.00000e-12
 Reference value :  1.02772e-12
 Reference value :  1.08316e-12
 Reference value :  1.19404e-12
 Reference value :  1.33844e-12
 Reference value :  1.62723e-12
 Reference value :  2.20481e-12
 Reference value :  3.04781e-12
 Reference value :  3.95073e-12
 Reference value :  5.16816e-12
 Reference value :  6.89848e-12
 Reference value :  1.02086e-11
 Reference value :  1.40007e-11
 Reference value :  2.08135e-11
 Reference value :  2.82695e-11
 Reference value :  3.76389e-11
 Reference value :  4.89859e-11
 Reference value :  6.70976e-11
 Reference value :  8.76349e-11
 Reference value :  1.00000e-10
 Reference value :  1.01061e-10
 Reference value :  1.03183e-10
 Reference value :  1.07427e-10
 Reference value :  1.15916e-10
 Reference value :  1.32893e-10
 Reference value :  1.66847e-10
 Reference value :  2.34756e-10
 Reference value :  3.70572e-10
 Reference value :  5.27670e-10
 Reference value :  7.67971e-10
 Reference value :  1.09433e-09
 Reference value :  1.59212e-09
 Reference value :  2.43107e-09
 Reference value :  3.24848e-09
 Reference value :  4.01765e-09
 Reference value :  4.94136e-09
 Reference value :  6.02517e-09
 Reference value :  7.15341e-09
 Reference value :  8.62872e-09
 Reference value :  9.73686e-09
 Reference value :  1.08219e-08
 Reference value :  1.17886e-08
 Reference value :  1.28080e-08
 Reference value :  1.44392e-08
 Reference value :  1.68056e-08
 Reference value :  2.02943e-08
 Reference value :  2.41819e-08
 Reference value :  2.79203e-08
 Reference value :  3.13891e-08
 Reference value :  3.50035e-08
 Reference value :  3.87626e-08
 Reference value :  4.40328e-08
 Reference value :  5.40794e-08
 Reference value :  7.41726e-08
 Reference value :  1.01974e-07
 Reference value :  1.57577e-07
 Reference value :  2.13067e-07
 Reference value :  2.50100e-07
 Reference value :  2.50110e-07
 Reference value :  2.50130e-07
 Reference value :  2.50170e-07
 Reference value :  2.50200e-07
 Reference value :  2.50201e-07
 Reference value :  2.50202e-07
 Reference value :  2.50204e-07
 Reference value :  2.50208e-07
 Reference value :  2.50216e-07
 Reference value :  2.50233e-07
 Reference value :  2.50267e-07
 Reference value :  2.50335e-07
 Reference value :  2.50470e-07
 Reference value :  2.50612e-07
 Reference value :  2.50873e-07
 Reference value :  2.51140e-07
 Reference value :  2.51675e-07
 Reference value :  2.52278e-07
 Reference value :  2.53082e-07
 Reference value :  2.53809e-07
 Reference value :  2.54840e-07
 Reference value :  2.55709e-07
 Reference value :  2.56695e-07
 Reference value :  2.57645e-07
 Reference value :  2.58699e-07
 Reference value :  2.59759e-07
 Reference value :  2.61602e-07
 Reference value :  2.63889e-07
 Reference value :  2.66864e-07
 Reference value :  2.70544e-07
 Reference value :  2.76656e-07
 Reference value :  2.83055e-07
 Reference value :  2.89761e-07
 Reference value :  3.03172e-07
 Reference value :  3.29996e-07
 Reference value :  3.83643e-07
 Reference value :  4.90938e-07
 Reference value :  5.00000e-07
 Reference value :  5.00010e-07
 Reference value :  5.00030e-07
 Reference value :  5.00070e-07
 Reference value :  5.00100e-07
 Reference value :  5.00104e-07
 Reference value :  5.00112e-07
 Reference value :  5.00129e-07
 Reference value :  5.00162e-07
 Reference value :  5.00227e-07
 Reference value :  5.00358e-07
 Reference value :  5.00601e-07
 Reference value :  5.00927e-07
 Reference value :  5.01579e-07
 Reference value :  5.02174e-07
 Reference value :  5.02858e-07
 Reference value :  5.03689e-07
 Reference value :  5.04637e-07
 Reference value :  5.05723e-07
 Reference value :  5.06775e-07
 Reference value :  5.08191e-07
 Reference value :  5.09511e-07
 Reference value :  5.11825e-07
 Reference value :  5.15453e-07
 Reference value :  5.17960e-07
 Reference value :  5.20753e-07
 Reference value :  5.23478e-07
 Reference value :  5.26721e-07
 Reference value :  5.31437e-07
 Reference value :  5.37826e-07
 Reference value :  5.48329e-07
 Reference value :  5.65637e-07
 Reference value :  5.94681e-07
 Reference value :  6.46085e-07
 Reference value :  7.34999e-07
 Reference value :  7.50100e-07
 Reference value :  7.50110e-07
 Reference value :  7.50130e-07
 Reference value :  7.50170e-07
 Reference value :  7.50200e-07
 Reference value :  7.50201e-07
 Reference value :  7.50202e-07
 Reference value :  7.50205e-07
 Reference value :  7.50210e-07
 Reference value :  7.50222e-07
 Reference value :  7.50244e-07
 Reference value :  7.50288e-07
 Reference value :  7.50378e-07
 Reference value :  7.50556e-07
 Reference value :  7.50913e-07
 Reference value :  7.51533e-07
 Reference value :  7.52276e-07
 Reference value :  7.53025e-07
 Reference value :  7.53886e-07
 Reference value :  7.54996e-07
 Reference value :  7.55859e-07
 Reference value :  7.56862e-07
 Reference value :  7.57836e-07
 Reference value :  7.58859e-07
 Reference value :  7.60114e-07
 Reference value :  7.61525e-07
 Reference value :  7.63243e-07
 Reference value :  7.65034e-07
 Reference value :  7.67847e-07
 Reference value :  7.70939e-07
 Reference value :  7.75833e-07
 Reference value :  7.82886e-07
 Reference value :  7.96816e-07
 Reference value :  8.17618e-07
 Reference value :  8.54994e-07
 Reference value :  9.22855e-07
 Reference value :  1.00000e-06
 Reference value :  1.00001e-06
 Reference value :  1.00003e-06
 Reference value :  1.00007e-06
 Reference value :  1.00010e-06
 Reference value :  1.00010e-06
 Reference value :  1.00011e-06
 Reference value :  1.00013e-06
 Reference value :  1.00016e-06
 Reference value :  1.00023e-06
 Reference value :  1.00036e-06
 Reference value :  1.00060e-06
 Reference value :  1.00092e-06
 Reference value :  1.00157e-06
 Reference value :  1.00217e-06
 Reference value :  1.00290e-06
 Reference value :  1.00376e-06
 Reference value :  1.00468e-06
 Reference value :  1.00571e-06
 Reference value :  1.00662e-06
 Reference value :  1.00759e-06
 Reference value :  1.00849e-06
 Reference value :  1.00955e-06
 Reference value :  1.01064e-06
 Reference value :  1.01203e-06
 Reference value :  1.01403e-06
 Reference value :  1.01711e-06
 Reference value :  1.01924e-06
 Reference value :  1.02156e-06
 Reference value :  1.02386e-06
 Reference value :  1.02562e-06
 Reference value :  1.02730e-06
 Reference value :  1.02908e-06
 Reference value :  1.03090e-06
 Reference value :  1.03308e-06
 Reference value :  1.03598e-06
 Reference value :  1.03916e-06
 Reference value :  1.04475e-06
 Reference value :  1.05304e-06
 Reference value :  1.06593e-06
 Reference value :  1.08758e-06
 Reference value :  1.12345e-06
 Reference value :  1.19521e-06
 Reference value :  1.25010e-06
 Reference value :  1.25011e-06
 Reference value :  1.25013e-06
 Reference value :  1.25017e-06
 Reference value :  1.25020e-06
 Reference value :  1.25020e-06
 Reference value :  1.25020e-06
 Reference value :  1.25020e-06
 Reference value :  1.25021e-06
 Reference value :  1.25022e-06
 Reference value :  1.25024e-06
 Reference value :  1.25029e-06
 Reference value :  1.25038e-06
 Reference value :  1.25056e-06
 Reference value :  1.25088e-06
 Reference value :  1.25145e-06
 Reference value :  1.25221e-06
 Reference value :  1.25298e-06
 Reference value :  1.25381e-06
 Reference value :  1.25489e-06
 Reference value :  1.25575e-06
 Reference value :  1.25677e-06
 Reference value :  1.25805e-06
 Reference value :  1.25921e-06
 Reference value :  1.26075e-06
 Reference value :  1.26373e-06
 Reference value :  1.26642e-06
 Reference value :  1.27060e-06
 Reference value :  1.27648e-06
 Reference value :  1.28823e-06
 Reference value :  1.31174e-06
 Reference value :  1.35336e-06
 Reference value :  1.43659e-06
 Reference value :  1.50000e-06
 Reference value :  1.50001e-06
 Reference value :  1.50003e-06
 Reference value :  1.50007e-06
 Reference value :  1.50010e-06
 Reference value :  1.50010e-06
 Reference value :  1.50011e-06
 Reference value :  1.50013e-06
 Reference value :  1.50016e-06
 Reference value :  1.50023e-06
 Reference value :  1.50036e-06
 Reference value :  1.50062e-06
 Reference value :  1.50093e-06
 Reference value :  1.50154e-06
 Reference value :  1.50214e-06
 Reference value :  1.50281e-06
 Reference value :  1.50365e-06
 Reference value :  1.50453e-06
 Reference value :  1.50564e-06
 Reference value :  1.50668e-06
 Reference value :  1.50798e-06
 Reference value :  1.50950e-06
 Reference value :  1.51068e-06
 Reference value :  1.51215e-06
 Reference value :  1.51375e-06
 Reference value :  1.51549e-06
 Reference value :  1.51728e-06
 Reference value :  1.51914e-06
 Reference value :  1.52143e-06
 Reference value :  1.52387e-06
 Reference value :  1.52875e-06
 Reference value :  1.53605e-06
 Reference value :  1.55058e-06
 Reference value :  1.57010e-06
 Reference value :  1.58984e-06
 Reference value :  1.61140e-06
 Reference value :  1.62467e-06
 Reference value :  1.63683e-06
 Reference value :  1.64844e-06
 Reference value :  1.66016e-06
 Reference value :  1.67938e-06
 Reference value :  1.70218e-06
 Reference value :  1.73952e-06
 Reference value :  1.75010e-06
 Reference value :  1.75011e-06
 Reference value :  1.75013e-06
 Reference value :  1.75017e-06
 Reference value :  1.75020e-06
 Reference value :  1.75020e-06
 Reference value :  1.75020e-06
 Reference value :  1.75020e-06
 Reference value :  1.75021e-06
 Reference value :  1.75022e-06
 Reference value :  1.75024e-06
 Reference value :  1.75029e-06
 Reference value :  1.75038e-06
 Reference value :  1.75056e-06
 Reference value :  1.75088e-06
 Reference value :  1.75146e-06
 Reference value :  1.75222e-06
 Reference value :  1.75298e-06
 Reference value :  1.75382e-06
 Reference value :  1.75491e-06
 Reference value :  1.75578e-06
 Reference value :  1.75682e-06
 Reference value :  1.75777e-06
 Reference value :  1.75879e-06
 Reference value :  1.76011e-06
 Reference value :  1.76153e-06
 Reference value :  1.76438e-06
 Reference value :  1.76731e-06
 Reference value :  1.77247e-06
 Reference value :  1.77910e-06
 Reference value :  1.79237e-06
 Reference value :  1.81891e-06
 Reference value :  1.87198e-06
 Reference value :  1.97813e-06
 Reference value :  2.00000e-06
 Reference value :  2.00001e-06
 Reference value :  2.00003e-06
 Reference value :  2.00007e-06
 Reference value :  2.00010e-06
 Reference value :  2.00010e-06
 Reference value :  2.00011e-06
 Reference value :  2.00013e-06
 Reference value :  2.00016e-06
 Reference value :  2.00023e-06
 Reference value :  2.00036e-06
 Reference value :  2.00062e-06
 Reference value :  2.00093e-06
 Reference value :  2.00154e-06
 Reference value :  2.00213e-06
 Reference value :  2.00286e-06
 Reference value :  2.00372e-06
 Reference value :  2.00462e-06
 Reference value :  2.00564e-06
 Reference value :  2.00656e-06
 Reference value :  2.00752e-06
 Reference value :  2.00848e-06
 Reference value :  2.00954e-06
 Reference value :  2.01064e-06
 Reference value :  2.01210e-06
 Reference value :  2.01402e-06
 Reference value :  2.01686e-06
 Reference value :  2.02002e-06
 Reference value :  2.02258e-06
 Reference value :  2.02475e-06
 Reference value :  2.02683e-06
 Reference value :  2.02886e-06
 Reference value :  2.03097e-06
 Reference value :  2.03352e-06
 Reference value :  2.03615e-06
 Reference value :  2.03953e-06
 Reference value :  2.04423e-06
 Reference value :  2.05000e-06
 Reference value :  2.05588e-06
 Reference value :  2.06031e-06
 Reference value :  2.06524e-06
 Reference value :  2.07046e-06
 Reference value :  2.07482e-06
 Reference value :  2.07940e-06
 Reference value :  2.08540e-06
 Reference value :  2.09214e-06
 Reference value :  2.09871e-06
 Reference value :  2.10511e-06
 Reference value :  2.11248e-06
 Reference value :  2.12723e-06
 Reference value :  2.14914e-06
 Reference value :  2.18669e-06
 Reference value :  2.25010e-06
 Reference value :  2.25011e-06
 Reference value :  2.25013e-06
 Reference value :  2.25017e-06
 Reference value :  2.25020e-06
 Reference value :  2.25020e-06
 Reference value :  2.25020e-06
 Reference value :  2.25020e-06
 Reference value :  2.25021e-06
 Reference value :  2.25022e-06
 Reference value :  2.25024e-06
 Reference value :  2.25029e-06
 Reference value :  2.25038e-06
 Reference value :  2.25056e-06
 Reference value :  2.25088e-06
 Reference value :  2.25146e-06
 Reference value :  2.25222e-06
 Reference value :  2.25298e-06
 Reference value :  2.25382e-06
 Reference value :  2.25491e-06
 Reference value :  2.25574e-06
 Reference value :  2.25673e-06
 Reference value :  2.25795e-06
 Reference value :  2.25913e-06
 Reference value :  2.26058e-06
 Reference value :  2.26348e-06
 Reference value :  2.26610e-06
 Reference value :  2.27014e-06
 Reference value :  2.27584e-06
 Reference value :  2.28725e-06
 Reference value :  2.31008e-06
 Reference value :  2.35171e-06
 Reference value :  2.43498e-06
 Reference value :  2.50000e-06
 Reference value :  2.50001e-06
 Reference value :  2.50003e-06
 Reference value :  2.50007e-06
 Reference value :  2.50010e-06
 Reference value :  2.50010e-06
 Reference value :  2.50011e-06
 Reference value :  2.50013e-06
 Reference value :  2.50016e-06
 Reference value :  2.50023e-06
 Reference value :  2.50036e-06
 Reference value :  2.50062e-06
 Reference value :  2.50093e-06
 Reference value :  2.50154e-06
 Reference value :  2.50214e-06
 Reference value :  2.50282e-06
 Reference value :  2.50365e-06
 Reference value :  2.50453e-06
 Reference value :  2.50564e-06
 Reference value :  2.50667e-06
 Reference value :  2.50797e-06
 Reference value :  2.50949e-06
 Reference value :  2.51067e-06
 Reference value :  2.51213e-06
 Reference value :  2.51373e-06
 Reference value :  2.51547e-06
 Reference value :  2.51747e-06
 Reference value :  2.51928e-06
 Reference value :  2.52173e-06
 Reference value :  2.52430e-06
 Reference value :  2.52903e-06
 Reference value :  2.53640e-06
 Reference value :  2.54998e-06
 Reference value :  2.57689e-06
 Reference value :  2.62720e-06
 Reference value :  2.72780e-06
 Reference value :  2.75010e-06
 Reference value :  2.75011e-06
 Reference value :  2.75013e-06
 Reference value :  2.75017e-06
 Reference value :  2.75020e-06
 Reference value :  2.75020e-06
 Reference value :  2.75020e-06
 Reference value :  2.75020e-06
 Reference value :  2.75021e-06
 Reference value :  2.75022e-06
 Reference value :  2.75024e-06
 Reference value :  2.75029e-06
 Reference value :  2.75038e-06
 Reference value :  2.75056e-06
 Reference value :  2.75088e-06
 Reference value :  2.75146e-06
 Reference value :  2.75222e-06
 Reference value :  2.75298e-06
 Reference value :  2.75382e-06
 Reference value :  2.75491e-06
 Reference value :  2.75577e-06
 Reference value :  2.75680e-06
 Reference value :  2.75773e-06
 Reference value :  2.75874e-06
 Reference value :  2.75994e-06
 Reference value :  2.76133e-06
 Reference value :  2.76297e-06
 Reference value :  2.76469e-06
 Reference value :  2.76759e-06
 Reference value :  2.77069e-06
 Reference value :  2.77546e-06
 Reference value :  2.78223e-06
 Reference value :  2.79539e-06
 Reference value :  2.81463e-06
 Reference value :  2.84872e-06
 Reference value :  2.90722e-06
 Reference value :  3.00000e-06
 Reference value :  3.00001e-06
 Reference value :  3.00003e-06
 Reference value :  3.00007e-06
 Reference value :  3.00010e-06
 Reference value :  3.00010e-06
 Reference value :  3.00011e-06
 Reference value :  3.00013e-06
 Reference value :  3.00016e-06
 Reference value :  3.00023e-06
 Reference value :  3.00036e-06
 Reference value :  3.00062e-06
 Reference value :  3.00093e-06
 Reference value :  3.00154e-06
 Reference value :  3.00213e-06
 Reference value :  3.00285e-06
 Reference value :  3.00372e-06
 Reference value :  3.00461e-06
 Reference value :  3.00561e-06
 Reference value :  3.00650e-06
 Reference value :  3.00744e-06
 Reference value :  3.00836e-06
 Reference value :  3.00938e-06
 Reference value :  3.01046e-06
 Reference value :  3.01190e-06
 Reference value :  3.01371e-06
 Reference value :  3.01624e-06
 Reference value :  3.01811e-06
 Reference value :  3.02016e-06
 Reference value :  3.02239e-06
 Reference value :  3.02403e-06
 Reference value :  3.02561e-06
 Reference value :  3.02739e-06
 Reference value :  3.02924e-06
 Reference value :  3.03117e-06
 Reference value :  3.03342e-06
 Reference value :  3.03649e-06
 Reference value :  3.03985e-06
 Reference value :  3.04618e-06
 Reference value :  3.05518e-06
 Reference value :  3.06981e-06
 Reference value :  3.09480e-06
 Reference value :  3.13984e-06
 Reference value :  3.19771e-06
 Reference value :  3.25010e-06
 Reference value :  3.25011e-06
 Reference value :  3.25013e-06
 Reference value :  3.25017e-06
 Reference value :  3.25020e-06
 Reference value :  3.25020e-06
 Reference value :  3.25020e-06
 Reference value :  3.25020e-06
 Reference value :  3.25021e-06
 Reference value :  3.25022e-06
 Reference value :  3.25024e-06
 Reference value :  3.25029e-06
 Reference value :  3.25038e-06
 Reference value :  3.25056e-06
 Reference value :  3.25088e-06
 Reference value :  3.25146e-06
 Reference value :  3.25222e-06
 Reference value :  3.25299e-06
 Reference value :  3.25383e-06
 Reference value :  3.25491e-06
 Reference value :  3.25576e-06
 Reference value :  3.25677e-06
 Reference value :  3.25802e-06
 Reference value :  3.25919e-06
 Reference value :  3.26069e-06
 Reference value :  3.26334e-06
 Reference value :  3.26606e-06
 Reference value :  3.27000e-06
 Reference value :  3.27585e-06
 Reference value :  3.28755e-06
 Reference value :  3.31086e-06
 Reference value :  3.35265e-06
 Reference value :  3.43622e-06
 Reference value :  3.50000e-06
 Reference value :  3.50001e-06
 Reference value :  3.50003e-06
 Reference value :  3.50007e-06
 Reference value :  3.50010e-06
 Reference value :  3.50010e-06
 Reference value :  3.50011e-06
 Reference value :  3.50013e-06
 Reference value :  3.50016e-06
 Reference value :  3.50023e-06
 Reference value :  3.50036e-06
 Reference value :  3.50062e-06
 Reference value :  3.50093e-06
 Reference value :  3.50154e-06
 Reference value :  3.50214e-06
 Reference value :  3.50281e-06
 Reference value :  3.50365e-06
 Reference value :  3.50453e-06
 Reference value :  3.50563e-06
 Reference value :  3.50664e-06
 Reference value :  3.50796e-06
 Reference value :  3.50932e-06
 Reference value :  3.51048e-06
 Reference value :  3.51199e-06
 Reference value :  3.51361e-06
 Reference value :  3.51532e-06
 Reference value :  3.51730e-06
 Reference value :  3.51916e-06
 Reference value :  3.52212e-06
 Reference value :  3.52496e-06
 Reference value :  3.53065e-06
 Reference value :  3.53970e-06
 Reference value :  3.55575e-06
 Reference value :  3.58786e-06
 Reference value :  3.64756e-06
 Reference value :  3.75010e-06
 Reference value :  3.75011e-06
 Reference value :  3.75013e-06
 Reference value :  3.75017e-06
 Reference value :  3.75020e-06
 Reference value :  3.75020e-06
 Reference value :  3.75020e-06
 Reference value :  3.75020e-06
 Reference value :  3.75021e-06
 Reference value :  3.75022e-06
 Reference value :  3.75024e-06
 Reference value :  3.75029e-06
 Reference value :  3.75038e-06
 Reference value :  3.75056e-06
 Reference value :  3.75088e-06
 Reference value :  3.75146e-06
 Reference value :  3.75222e-06
 Reference value :  3.75298e-06
 Reference value :  3.75383e-06
 Reference value :  3.75492e-06
 Reference value :  3.75578e-06
 Reference value :  3.75680e-06
 Reference value :  3.75773e-06
 Reference value :  3.75874e-06
 Reference value :  3.75994e-06
 Reference value :  3.76133e-06
 Reference value :  3.76295e-06
 Reference value :  3.76466e-06
 Reference value :  3.76755e-06
 Reference value :  3.77064e-06
 Reference value :  3.77540e-06
 Reference value :  3.78211e-06
 Reference value :  3.79507e-06
 Reference value :  3.81399e-06
 Reference value :  3.84733e-06
 Reference value :  3.90668e-06
 Reference value :  4.00000e-06
 Reference value :  4.00001e-06
 Reference value :  4.00003e-06
 Reference value :  4.00007e-06
 Reference value :  4.00010e-06
 Reference value :  4.00010e-06
 Reference value :  4.00011e-06
 Reference value :  4.00013e-06
 Reference value :  4.00016e-06
 Reference value :  4.00023e-06
 Reference value :  4.00036e-06
 Reference value :  4.00062e-06
 Reference value :  4.00093e-06
 Reference value :  4.00154e-06
 Reference value :  4.00213e-06
 Reference value :  4.00285e-06
 Reference value :  4.00372e-06
 Reference value :  4.00461e-06
 Reference value :  4.00561e-06
 Reference value :  4.00649e-06
 Reference value :  4.00744e-06
 Reference value :  4.00835e-06
 Reference value :  4.00938e-06
 Reference value :  4.01046e-06
 Reference value :  4.01188e-06
 Reference value :  4.01378e-06
 Reference value :  4.01568e-06
 Reference value :  4.01754e-06
 Reference value :  4.01952e-06
 Reference value :  4.02159e-06
 Reference value :  4.02333e-06
 Reference value :  4.02506e-06
 Reference value :  4.02704e-06
 Reference value :  4.02895e-06
 Reference value :  4.03081e-06
 Reference value :  4.03321e-06
 Reference value :  4.03614e-06
 Reference value :  4.03940e-06
 Reference value :  4.04471e-06
 Reference value :  4.05238e-06
 Reference value :  4.06458e-06
 Reference value :  4.08459e-06
 Reference value :  4.10674e-06
 Reference value :  4.12668e-06
 Reference value :  4.14781e-06
 Reference value :  4.15720e-06
 Reference value :  4.16738e-06
 Reference value :  4.17803e-06
 Reference value :  4.19342e-06
 Reference value :  4.21834e-06
 Reference value :  4.24131e-06
 Reference value :  4.25010e-06
 Reference value :  4.25011e-06
 Reference value :  4.25013e-06
 Reference value :  4.25017e-06
 Reference value :  4.25020e-06
 Reference value :  4.25020e-06
 Reference value :  4.25020e-06
 Reference value :  4.25020e-06
 Reference value :  4.25021e-06
 Reference value :  4.25022e-06
 Reference value :  4.25024e-06
 Reference value :  4.25029e-06
 Reference value :  4.25038e-06
 Reference value :  4.25056e-06
 Reference value :  4.25088e-06
 Reference value :  4.25145e-06
 Reference value :  4.25222e-06
 Reference value :  4.25298e-06
 Reference value :  4.25382e-06
 Reference value :  4.25491e-06
 Reference value :  4.25575e-06
 Reference value :  4.25676e-06
 Reference value :  4.25802e-06
 Reference value :  4.25918e-06
 Reference value :  4.26067e-06
 Reference value :  4.26285e-06
 Reference value :  4.26517e-06
 Reference value :  4.26839e-06
 Reference value :  4.27179e-06
 Reference value :  4.27859e-06
 Reference value :  4.29219e-06
 Reference value :  4.30522e-06
 Reference value :  4.31755e-06
 Reference value :  4.32909e-06
 Reference value :  4.34224e-06
 Reference value :  4.36853e-06
 Reference value :  4.40283e-06
 Reference value :  4.45246e-06
 Reference value :  4.50000e-06
 Reference value :  4.50001e-06
 Reference value :  4.50003e-06
 Reference value :  4.50007e-06
 Reference value :  4.50010e-06
 Reference value :  4.50010e-06
 Reference value :  4.50011e-06
 Reference value :  4.50013e-06
 Reference value :  4.50016e-06
 Reference value :  4.50023e-06
 Reference value :  4.50036e-06
 Reference value :  4.50062e-06
 Reference value :  4.50093e-06
 Reference value :  4.50154e-06
 Reference value :  4.50213e-06
 Reference value :  4.50281e-06
 Reference value :  4.50364e-06
 Reference value :  4.50452e-06
 Reference value :  4.50563e-06
 Reference value :  4.50664e-06
 Reference value :  4.50794e-06
 Reference value :  4.50933e-06
 Reference value :  4.51045e-06
 Reference value :  4.51189e-06
 Reference value :  4.51344e-06
 Reference value :  4.51513e-06
 Reference value :  4.51713e-06
 Reference value :  4.51919e-06
 Reference value :  4.52145e-06
 Reference value :  4.52596e-06
 Reference value :  4.53359e-06
 Reference value :  4.54644e-06
 Reference value :  4.57204e-06
 Reference value :  4.62322e-06
 Reference value :  4.72560e-06
 Reference value :  4.75010e-06
 Reference value :  4.75011e-06
 Reference value :  4.75013e-06
 Reference value :  4.75017e-06
 Reference value :  4.75020e-06
 Reference value :  4.75020e-06
 Reference value :  4.75020e-06
 Reference value :  4.75020e-06
 Reference value :  4.75021e-06
 Reference value :  4.75022e-06
 Reference value :  4.75024e-06
 Reference value :  4.75029e-06
 Reference value :  4.75038e-06
 Reference value :  4.75056e-06
 Reference value :  4.75088e-06
 Reference value :  4.75145e-06
 Reference value :  4.75222e-06
 Reference value :  4.75298e-06
 Reference value :  4.75382e-06
 Reference value :  4.75491e-06
 Reference value :  4.75577e-06
 Reference value :  4.75679e-06
 Reference value :  4.75773e-06
 Reference value :  4.75874e-06
 Reference value :  4.75993e-06
 Reference value :  4.76132e-06
 Reference value :  4.76296e-06
 Reference value :  4.76468e-06
 Reference value :  4.76757e-06
 Reference value :  4.77067e-06
 Reference value :  4.77543e-06
 Reference value :  4.78218e-06
 Reference value :  4.79531e-06
 Reference value :  4.81450e-06
 Reference value :  4.84851e-06
 Reference value :  4.90714e-06
 Reference value :  5.00000e-06
 Reference value :  5.00001e-06
 Reference value :  5.00003e-06
 Reference value :  5.00007e-06
 Reference value :  5.00010e-06
 Reference value :  5.00010e-06
 Reference value :  5.00011e-06
 Reference value :  5.00013e-06
 Reference value :  5.00016e-06
 Reference value :  5.00023e-06
 Reference value :  5.00036e-06
 Reference value :  5.00062e-06
 Reference value :  5.00092e-06
 Reference value :  5.00154e-06
 Reference value :  5.00213e-06
 Reference value :  5.00285e-06
 Reference value :  5.00371e-06
 Reference value :  5.00461e-06
 Reference value :  5.00561e-06
 Reference value :  5.00649e-06
 Reference value :  5.00744e-06
 Reference value :  5.00833e-06
 Reference value :  5.00937e-06
 Reference value :  5.01044e-06
 Reference value :  5.01181e-06
 Reference value :  5.01376e-06
 Reference value :  5.01536e-06
 Reference value :  5.01706e-06
 Reference value :  5.01875e-06
 Reference value :  5.02066e-06
 Reference value :  5.02240e-06
 Reference value :  5.02374e-06
 Reference value :  5.02504e-06
 Reference value :  5.02659e-06
 Reference value :  5.02823e-06
 Reference value :  5.02978e-06
 Reference value :  5.03182e-06
 Reference value :  5.03412e-06
 Reference value :  5.03721e-06
 Reference value :  5.04136e-06
 Reference value :  5.04705e-06
 Reference value :  5.05273e-06
 Reference value :  5.05667e-06
 Reference value :  5.06038e-06
 Reference value :  5.06351e-06
 Reference value :  5.06739e-06
 Reference value :  5.07298e-06
 Reference value :  5.07949e-06
 Reference value :  5.08958e-06
 Reference value :  5.10320e-06
 Reference value :  5.12317e-06
 Reference value :  5.15271e-06
 Reference value :  5.19447e-06
 Reference value :  5.25010e-06
 Reference value :  5.25011e-06
 Reference value :  5.25013e-06
 Reference value :  5.25017e-06
 Reference value :  5.25020e-06
 Reference value :  5.25020e-06
 Reference value :  5.25020e-06
 Reference value :  5.25020e-06
 Reference value :  5.25021e-06
 Reference value :  5.25022e-06
 Reference value :  5.25024e-06
 Reference value :  5.25029e-06
 Reference value :  5.25038e-06
 Reference value :  5.25056e-06
 Reference value :  5.25088e-06
 Reference value :  5.25146e-06
 Reference value :  5.25223e-06
 Reference value :  5.25299e-06
 Reference value :  5.25383e-06
 Reference value :  5.25492e-06
 Reference value :  5.25579e-06
 Reference value :  5.25683e-06
 Reference value :  5.25799e-06
 Reference value :  5.25916e-06
 Reference value :  5.26065e-06
 Reference value :  5.26330e-06
 Reference value :  5.26601e-06
 Reference value :  5.26991e-06
 Reference value :  5.27574e-06
 Reference value :  5.28739e-06
 Reference value :  5.31052e-06
 Reference value :  5.35209e-06
 Reference value :  5.43522e-06
 Reference value :  5.50000e-06
 Reference value :  5.50001e-06
 Reference value :  5.50003e-06
 Reference value :  5.50007e-06
 Reference value :  5.50010e-06
 Reference value :  5.50010e-06
 Reference value :  5.50011e-06
 Reference value :  5.50013e-06
 Reference value :  5.50016e-06
 Reference value :  5.50023e-06
 Reference value :  5.50036e-06
 Reference value :  5.50062e-06
 Reference value :  5.50093e-06
 Reference value :  5.50154e-06
 Reference value :  5.50214e-06
 Reference value :  5.50286e-06
 Reference value :  5.50373e-06
 Reference value :  5.50463e-06
 Reference value :  5.50560e-06
 Reference value :  5.50671e-06
 Reference value :  5.50788e-06
 Reference value :  5.50939e-06
 Reference value :  5.51053e-06
 Reference value :  5.51191e-06
 Reference value :  5.51345e-06
 Reference value :  5.51513e-06
 Reference value :  5.51686e-06
 Reference value :  5.51873e-06
 Reference value :  5.52076e-06
 Reference value :  5.52482e-06
 Reference value :  5.53294e-06
 Reference value :  5.54446e-06
 Reference value :  5.56750e-06
 Reference value :  5.61358e-06
 Reference value :  5.70574e-06
 Reference value :  5.75010e-06
 Reference value :  5.75011e-06
 Reference value :  5.75013e-06
 Reference value :  5.75017e-06
 Reference value :  5.75020e-06
 Reference value :  5.75020e-06
 Reference value :  5.75020e-06
 Reference value :  5.75020e-06
 Reference value :  5.75021e-06
 Reference value :  5.75022e-06
 Reference value :  5.75024e-06
 Reference value :  5.75029e-06
 Reference value :  5.75038e-06
 Reference value :  5.75056e-06
 Reference value :  5.75088e-06
 Reference value :  5.75146e-06
 Reference value :  5.75222e-06
 Reference value :  5.75299e-06
 Reference value :  5.75383e-06
 Reference value :  5.75491e-06
 Reference value :  5.75577e-06
 Reference value :  5.75679e-06
 Reference value :  5.75772e-06
 Reference value :  5.75873e-06
 Reference value :  5.76004e-06
 Reference value :  5.76145e-06
 Reference value :  5.76427e-06
 Reference value :  5.76720e-06
 Reference value :  5.77223e-06
 Reference value :  5.77874e-06
 Reference value :  5.79176e-06
 Reference value :  5.81781e-06
 Reference value :  5.86991e-06
 Reference value :  5.97411e-06
 Reference value :  6.00000e-06
 Reference value :  6.00001e-06
 Reference value :  6.00003e-06
 Reference value :  6.00007e-06
 Reference value :  6.00010e-06
 Reference value :  6.00010e-06
 Reference value :  6.00011e-06
 Reference value :  6.00013e-06
 Reference value :  6.00016e-06
 Reference value :  6.00023e-06
 Reference value :  6.00036e-06
 Reference value :  6.00062e-06
 Reference value :  6.00093e-06
 Reference value :  6.00154e-06
 Reference value :  6.00213e-06
 Reference value :  6.00285e-06
 Reference value :  6.00372e-06
 Reference value :  6.00462e-06
 Reference value :  6.00563e-06
 Reference value :  6.00666e-06
 Reference value :  6.00759e-06
 Reference value :  6.00844e-06
 Reference value :  6.00943e-06
 Reference value :  6.01062e-06
 Reference value :  6.01191e-06
 Reference value :  6.01410e-06
 Reference value :  6.01715e-06
 Reference value :  6.02015e-06
 Reference value :  6.02279e-06
 Reference value :  6.02488e-06
 Reference value :  6.02685e-06
 Reference value :  6.02873e-06
 Reference value :  6.03073e-06
 Reference value :  6.03312e-06
 Reference value :  6.03572e-06
 Reference value :  6.03897e-06
 Reference value :  6.04361e-06
 Reference value :  6.05065e-06
 Reference value :  6.06164e-06
 Reference value :  6.07378e-06
 Reference value :  6.09395e-06
 Reference value :  6.11464e-06
 Reference value :  6.13922e-06
 Reference value :  6.16266e-06
 Reference value :  6.18403e-06
 Reference value :  6.20612e-06
 Reference value :  6.23063e-06
 Reference value :  6.25010e-06
 Reference value :  6.25011e-06
 Reference value :  6.25013e-06
 Reference value :  6.25017e-06
 Reference value :  6.25020e-06
 Reference value :  6.25020e-06
 Reference value :  6.25020e-06
 Reference value :  6.25020e-06
 Reference value :  6.25021e-06
 Reference value :  6.25022e-06
 Reference value :  6.25024e-06
 Reference value :  6.25029e-06
 Reference value :  6.25038e-06
 Reference value :  6.25056e-06
 Reference value :  6.25088e-06
 Reference value :  6.25145e-06
 Reference value :  6.25222e-06
 Reference value :  6.25299e-06
 Reference value :  6.25383e-06
 Reference value :  6.25491e-06
 Reference value :  6.25574e-06
 Reference value :  6.25673e-06
 Reference value :  6.25793e-06
 Reference value :  6.25911e-06
 Reference value :  6.26055e-06
 Reference value :  6.26344e-06
 Reference value :  6.26605e-06
 Reference value :  6.27006e-06
 Reference value :  6.27573e-06
 Reference value :  6.28707e-06
 Reference value :  6.30974e-06
 Reference value :  6.35074e-06
 Reference value :  6.43274e-06
 Reference value :  6.50000e-06
 Reference value :  6.50001e-06
 Reference value :  6.50003e-06
 Reference value :  6.50007e-06
 Reference value :  6.50010e-06
 Reference value :  6.50010e-06
 Reference value :  6.50011e-06
 Reference value :  6.50013e-06
 Reference value :  6.50016e-06
 Reference value :  6.50023e-06
 Reference value :  6.50036e-06
 Reference value :  6.50062e-06
 Reference value :  6.50093e-06
 Reference value :  6.50154e-06
 Reference value :  6.50214e-06
 Reference value :  6.50281e-06
 Reference value :  6.50365e-06
 Reference value :  6.50453e-06
 Reference value :  6.50563e-06
 Reference value :  6.50664e-06
 Reference value :  6.50796e-06
 Reference value :  6.50933e-06
 Reference value :  6.51049e-06
 Reference value :  6.51201e-06
 Reference value :  6.51363e-06
 Reference value :  6.51536e-06
 Reference value :  6.51715e-06
 Reference value :  6.51905e-06
 Reference value :  6.52113e-06
 Reference value :  6.52528e-06
 Reference value :  6.53358e-06
 Reference value :  6.54510e-06
 Reference value :  6.56815e-06
 Reference value :  6.61425e-06
 Reference value :  6.70645e-06
 Reference value :  6.75010e-06
 Reference value :  6.75011e-06
 Reference value :  6.75013e-06
 Reference value :  6.75017e-06
 Reference value :  6.75020e-06
 Reference value :  6.75020e-06
 Reference value :  6.75020e-06
 Reference value :  6.75020e-06
 Reference value :  6.75021e-06
 Reference value :  6.75022e-06
 Reference value :  6.75024e-06
 Reference value :  6.75029e-06
 Reference value :  6.75038e-06
 Reference value :  6.75056e-06
 Reference value :  6.75088e-06
 Reference value :  6.75146e-06
 Reference value :  6.75222e-06
 Reference value :  6.75299e-06
 Reference value :  6.75383e-06
 Reference value :  6.75492e-06
 Reference value :  6.75578e-06
 Reference value :  6.75680e-06
 Reference value :  6.75774e-06
 Reference value :  6.75875e-06
 Reference value :  6.75994e-06
 Reference value :  6.76133e-06
 Reference value :  6.76295e-06
 Reference value :  6.76467e-06
 Reference value :  6.76755e-06
 Reference value :  6.77064e-06
 Reference value :  6.77540e-06
 Reference value :  6.78213e-06
 Reference value :  6.79514e-06
 Reference value :  6.81414e-06
 Reference value :  6.84766e-06
 Reference value :  6.90353e-06
 Reference value :  7.00000e-06
 Reference value :  7.00001e-06
 Reference value :  7.00003e-06
 Reference value :  7.00007e-06
 Reference value :  7.00010e-06
 Reference value :  7.00010e-06
 Reference value :  7.00011e-06
 Reference value :  7.00013e-06
 Reference value :  7.00016e-06
 Reference value :  7.00023e-06
 Reference value :  7.00036e-06
 Reference value :  7.00062e-06
 Reference value :  7.00093e-06
 Reference value :  7.00154e-06
 Reference value :  7.00213e-06
 Reference value :  7.00285e-06
 Reference value :  7.00372e-06
 Reference value :  7.00461e-06
 Reference value :  7.00561e-06
 Reference value :  7.00649e-06
 Reference value :  7.00744e-06
 Reference value :  7.00832e-06
 Reference value :  7.00935e-06
 Reference value :  7.01043e-06
 Reference value :  7.01177e-06
 Reference value :  7.01376e-06
 Reference value :  7.01580e-06
 Reference value :  7.01770e-06
 Reference value :  7.01967e-06
 Reference value :  7.02180e-06
 Reference value :  7.02399e-06
 Reference value :  7.02547e-06
 Reference value :  7.02715e-06
 Reference value :  7.02881e-06
 Reference value :  7.03047e-06
 Reference value :  7.03257e-06
 Reference value :  7.03436e-06
 Reference value :  7.03629e-06
 Reference value :  7.03897e-06
 Reference value :  7.04150e-06
 Reference value :  7.04483e-06
 Reference value :  7.05065e-06
 Reference value :  7.05998e-06
 Reference value :  7.07310e-06
 Reference value :  7.09677e-06
 Reference value :  7.14245e-06
 Reference value :  7.22231e-06
 Reference value :  7.25010e-06
 Reference value :  7.25011e-06
 Reference value :  7.25013e-06
 Reference value :  7.25017e-06
 Reference value :  7.25020e-06
 Reference value :  7.25020e-06
 Reference value :  7.25020e-06
 Reference value :  7.25020e-06
 Reference value :  7.25021e-06
 Reference value :  7.25022e-06
 Reference value :  7.25024e-06
 Reference value :  7.25029e-06
 Reference value :  7.25038e-06
 Reference value :  7.25056e-06
 Reference value :  7.25089e-06
 Reference value :  7.25147e-06
 Reference value :  7.25223e-06
 Reference value :  7.25299e-06
 Reference value :  7.25384e-06
 Reference value :  7.25493e-06
 Reference value :  7.25578e-06
 Reference value :  7.25678e-06
 Reference value :  7.25801e-06
 Reference value :  7.25920e-06
 Reference value :  7.26066e-06
 Reference value :  7.26359e-06
 Reference value :  7.26625e-06
 Reference value :  7.27036e-06
 Reference value :  7.27616e-06
 Reference value :  7.28775e-06
 Reference value :  7.31093e-06
 Reference value :  7.35215e-06
 Reference value :  7.43459e-06
 Reference value :  7.50000e-06
 Reference value :  7.50001e-06
 Reference value :  7.50003e-06
 Reference value :  7.50007e-06
 Reference value :  7.50010e-06
 Reference value :  7.50010e-06
 Reference value :  7.50011e-06
 Reference value :  7.50013e-06
 Reference value :  7.50016e-06
 Reference value :  7.50023e-06
 Reference value :  7.50036e-06
 Reference value :  7.50061e-06
 Reference value :  7.50092e-06
 Reference value :  7.50155e-06
 Reference value :  7.50215e-06
 Reference value :  7.50289e-06
 Reference value :  7.50375e-06
 Reference value :  7.50466e-06
 Reference value :  7.50562e-06
 Reference value :  7.50674e-06
 Reference value :  7.50791e-06
 Reference value :  7.50941e-06
 Reference value :  7.51059e-06
 Reference value :  7.51204e-06
 Reference value :  7.51363e-06
 Reference value :  7.51534e-06
 Reference value :  7.51730e-06
 Reference value :  7.51929e-06
 Reference value :  7.52165e-06
 Reference value :  7.52597e-06
 Reference value :  7.53278e-06
 Reference value :  7.54515e-06
 Reference value :  7.56813e-06
 Reference value :  7.61408e-06
 Reference value :  7.70599e-06
 Reference value :  7.75010e-06
 Reference value :  7.75011e-06
 Reference value :  7.75013e-06
 Reference value :  7.75017e-06
 Reference value :  7.75020e-06
 Reference value :  7.75020e-06
 Reference value :  7.75020e-06
 Reference value :  7.75020e-06
 Reference value :  7.75021e-06
 Reference value :  7.75022e-06
 Reference value :  7.75024e-06
 Reference value :  7.75029e-06
 Reference value :  7.75038e-06
 Reference value :  7.75056e-06
 Reference value :  7.75089e-06
 Reference value :  7.75147e-06
 Reference value :  7.75223e-06
 Reference value :  7.75299e-06
 Reference value :  7.75384e-06
 Reference value :  7.75493e-06
 Reference value :  7.75576e-06
 Reference value :  7.75675e-06
 Reference value :  7.75769e-06
 Reference value :  7.75869e-06
 Reference value :  7.76001e-06
 Reference value :  7.76143e-06
 Reference value :  7.76426e-06
 Reference value :  7.76719e-06
 Reference value :  7.77227e-06
 Reference value :  7.77883e-06
 Reference value :  7.79195e-06
 Reference value :  7.81820e-06
 Reference value :  7.87069e-06
 Reference value :  7.97568e-06
 Reference value :  8.00000e-06
 Reference value :  8.00001e-06
 Reference value :  8.00003e-06
 Reference value :  8.00007e-06
 Reference value :  8.00010e-06
 Reference value :  8.00010e-06
 Reference value :  8.00011e-06
 Reference value :  8.00013e-06
 Reference value :  8.00016e-06
 Reference value :  8.00023e-06
 Reference value :  8.00036e-06
 Reference value :  8.00061e-06
 Reference value :  8.00092e-06
 Reference value :  8.00155e-06
 Reference value :  8.00215e-06
 Reference value :  8.00288e-06
 Reference value :  8.00374e-06
 Reference value :  8.00465e-06
 Reference value :  8.00566e-06
 Reference value :  8.00658e-06
 Reference value :  8.00754e-06
 Reference value :  8.00842e-06
 Reference value :  8.00944e-06
 Reference value :  8.01055e-06
 Reference value :  8.01187e-06
 Reference value :  8.01391e-06
 Reference value :  8.01680e-06
 Reference value :  8.02060e-06
 Reference value :  8.02341e-06
 Reference value :  8.02658e-06
 Reference value :  8.03014e-06
 Reference value :  8.03409e-06
 Reference value :  8.04026e-06
 Reference value :  8.04843e-06
 Reference value :  8.06164e-06
 Reference value :  8.08265e-06
 Reference value :  8.11643e-06
 Reference value :  8.17364e-06
 Reference value :  8.25010e-06
 Reference value :  8.25011e-06
 Reference value :  8.25013e-06
 Reference value :  8.25017e-06
 Reference value :  8.25020e-06
 Reference value :  8.25020e-06
 Reference value :  8.25020e-06
 Reference value :  8.25020e-06
 Reference value :  8.25021e-06
 Reference value :  8.25022e-06
 Reference value :  8.25024e-06
 Reference value :  8.25029e-06
 Reference value :  8.25038e-06
 Reference value :  8.25056e-06
 Reference value :  8.25091e-06
 Reference value :  8.25163e-06
 Reference value :  8.25235e-06
 Reference value :  8.25309e-06
 Reference value :  8.25394e-06
 Reference value :  8.25510e-06
 Reference value :  8.25625e-06
 Reference value :  8.25784e-06
 Reference value :  8.25967e-06
 Reference value :  8.26149e-06
 Reference value :  8.26444e-06
 Reference value :  8.26763e-06
 Reference value :  8.27270e-06
 Reference value :  8.28014e-06
 Reference value :  8.29503e-06
 Reference value :  8.32479e-06
 Reference value :  8.38433e-06
 Reference value :  8.50000e-06
 Reference value :  8.50000e-06
 Reference value :  8.50000e-06
 Reference value :  8.50000e-06
 Reference value :  8.50000e-06
 Reference value :  8.50000e-06
 Reference value :  8.50000e-06
 Reference value :  8.50000e-06
 Reference value :  8.50000e-06
 Reference value :  8.50000e-06
 Reference value :  8.50001e-06
 Reference value :  8.50001e-06
 Reference value :  8.50002e-06
 Reference value :  8.50004e-06
 Reference value :  8.50008e-06
 Reference value :  8.50010e-06
 Reference value :  8.50010e-06
 Reference value :  8.50011e-06
 Reference value :  8.50012e-06
 Reference value :  8.50014e-06
 Reference value :  8.50018e-06
 Reference value :  8.50026e-06
 Reference value :  8.50042e-06
 Reference value :  8.50075e-06
 Reference value :  8.50116e-06
 Reference value :  8.50193e-06
 Reference value :  8.50277e-06
 Reference value :  8.50358e-06
 Reference value :  8.50447e-06
 Reference value :  8.50531e-06
 Reference value :  8.50630e-06
 Reference value :  8.50745e-06
 Reference value :  8.50868e-06
 Reference value :  8.51114e-06
 Reference value :  8.51271e-06
 Reference value :  8.51448e-06
 Reference value :  8.51668e-06
 Reference value :  8.51907e-06
 Reference value :  8.52218e-06
 Reference value :  8.52773e-06
 Reference value :  8.53336e-06
 Reference value :  8.53910e-06
 Reference value :  8.54325e-06
 Reference value :  8.54729e-06
 Reference value :  8.55114e-06
 Reference value :  8.55425e-06
 Reference value :  8.55697e-06
 Reference value :  8.55947e-06
 Reference value :  8.56192e-06
 Reference value :  8.56559e-06
 Reference value :  8.56956e-06
 Reference value :  8.57244e-06
 Reference value :  8.57531e-06
 Reference value :  8.57798e-06
 Reference value :  8.58084e-06
 Reference value :  8.58655e-06
 Reference value :  8.59799e-06
 Reference value :  8.61089e-06
 Reference value :  8.62954e-06
 Reference value :  8.65611e-06
 Reference value :  8.70111e-06
 Reference value :  8.74493e-06
 Reference value :  8.75010e-06
 Reference value :  8.75011e-06
 Reference value :  8.75013e-06
 Reference value :  8.75017e-06
 Reference value :  8.75020e-06
 Reference value :  8.75020e-06
 Reference value :  8.75020e-06
 Reference value :  8.75020e-06
 Reference value :  8.75021e-06
 Reference value :  8.75022e-06
 Reference value :  8.75024e-06
 Reference value :  8.75029e-06
 Reference value :  8.75038e-06
 Reference value :  8.75056e-06
 Reference value :  8.75091e-06
 Reference value :  8.75153e-06
 Reference value :  8.75227e-06
 Reference value :  8.75302e-06
 Reference value :  8.75386e-06
 Reference value :  8.75501e-06
 Reference value :  8.75591e-06
 Reference value :  8.75691e-06
 Reference value :  8.75811e-06
 Reference value :  8.75937e-06
 Reference value :  8.76071e-06
 Reference value :  8.76339e-06
 Reference value :  8.76612e-06
 Reference value :  8.77018e-06
 Reference value :  8.77604e-06
 Reference value :  8.78777e-06
 Reference value :  8.81122e-06
 Reference value :  8.85702e-06
 Reference value :  8.89627e-06
 Reference value :  8.91943e-06
 Reference value :  8.93473e-06
 Reference value :  8.94615e-06
 Reference value :  8.95743e-06
 Reference value :  8.96900e-06
 Reference value :  8.98278e-06
 Reference value :  9.00000e-06
 Reference value :  9.00001e-06
 Reference value :  9.00003e-06
 Reference value :  9.00007e-06
 Reference value :  9.00010e-06
 Reference value :  9.00010e-06
 Reference value :  9.00011e-06
 Reference value :  9.00013e-06
 Reference value :  9.00016e-06
 Reference value :  9.00023e-06
 Reference value :  9.00036e-06
 Reference value :  9.00060e-06
 Reference value :  9.00093e-06
 Reference value :  9.00158e-06
 Reference value :  9.00218e-06
 Reference value :  9.00286e-06
 Reference value :  9.00369e-06
 Reference value :  9.00464e-06
 Reference value :  9.00568e-06
 Reference value :  9.00675e-06
 Reference value :  9.00811e-06
 Reference value :  9.00944e-06
 Reference value :  9.01173e-06
 Reference value :  9.01553e-06
 Reference value :  9.01814e-06
 Reference value :  9.02099e-06
 Reference value :  9.02390e-06
 Reference value :  9.02715e-06
 Reference value :  9.03195e-06
 Reference value :  9.03827e-06
 Reference value :  9.04858e-06
 Reference value :  9.06504e-06
 Reference value :  9.09224e-06
 Reference value :  9.13939e-06
 Reference value :  9.21927e-06
 Reference value :  9.25010e-06
 Reference value :  9.25011e-06
 Reference value :  9.25013e-06
 Reference value :  9.25017e-06
 Reference value :  9.25020e-06
 Reference value :  9.25020e-06
 Reference value :  9.25020e-06
 Reference value :  9.25020e-06
 Reference value :  9.25021e-06
 Reference value :  9.25022e-06
 Reference value :  9.25024e-06
 Reference value :  9.25029e-06
 Reference value :  9.25038e-06
 Reference value :  9.25056e-06
 Reference value :  9.25091e-06
 Reference value :  9.25153e-06
 Reference value :  9.25228e-06
 Reference value :  9.25302e-06
 Reference value :  9.25389e-06
 Reference value :  9.25499e-06
 Reference value :  9.25585e-06
 Reference value :  9.25684e-06
 Reference value :  9.25782e-06
 Reference value :  9.25884e-06
 Reference value :  9.26014e-06
 Reference value :  9.26153e-06
 Reference value :  9.26300e-06
 Reference value :  9.26462e-06
 Reference value :  9.26742e-06
 Reference value :  9.27039e-06
 Reference value :  9.27492e-06
 Reference value :  9.28118e-06
 Reference value :  9.29369e-06
 Reference value :  9.31871e-06
 Reference value :  9.36875e-06
 Reference value :  9.46884e-06
 Reference value :  9.50000e-06
 Reference value :  9.50001e-06
 Reference value :  9.50003e-06
 Reference value :  9.50007e-06
 Reference value :  9.50010e-06
 Reference value :  9.50010e-06
 Reference value :  9.50011e-06
 Reference value :  9.50013e-06
 Reference value :  9.50016e-06
 Reference value :  9.50023e-06
 Reference value :  9.50036e-06
 Reference value :  9.50060e-06
 Reference value :  9.50092e-06
 Reference value :  9.50157e-06
 Reference value :  9.50217e-06
 Reference value :  9.50290e-06
 Reference value :  9.50376e-06
 Reference value :  9.50468e-06
 Reference value :  9.50570e-06
 Reference value :  9.50662e-06
 Reference value :  9.50759e-06
 Reference value :  9.50849e-06
 Reference value :  9.50955e-06
 Reference value :  9.51064e-06
 Reference value :  9.51202e-06
 Reference value :  9.51402e-06
 Reference value :  9.51710e-06
 Reference value :  9.51923e-06
 Reference value :  9.52155e-06
 Reference value :  9.52383e-06
 Reference value :  9.52559e-06
 Reference value :  9.52728e-06
 Reference value :  9.52903e-06
 Reference value :  9.53083e-06
 Reference value :  9.53293e-06
 Reference value :  9.53582e-06
 Reference value :  9.53887e-06
 Reference value :  9.54403e-06
 Reference value :  9.55176e-06
 Reference value :  9.56317e-06
 Reference value :  9.58219e-06
 Reference value :  9.61082e-06
 Reference value :  9.66365e-06
 Reference value :  9.75010e-06
 Reference value :  9.75011e-06
 Reference value :  9.75013e-06
 Reference value :  9.75017e-06
 Reference value :  9.75020e-06
 Reference value :  9.75020e-06
 Reference value :  9.75020e-06
 Reference value :  9.75020e-06
 Reference value :  9.75021e-06
 Reference value :  9.75022e-06
 Reference value :  9.75024e-06
 Reference value :  9.75029e-06
 Reference value :  9.75038e-06
 Reference value :  9.75056e-06
 Reference value :  9.75088e-06
 Reference value :  9.75145e-06
 Reference value :  9.75221e-06
 Reference value :  9.75298e-06
 Reference value :  9.75381e-06
 Reference value :  9.75489e-06
 Reference value :  9.75575e-06
 Reference value :  9.75677e-06
 Reference value :  9.75805e-06
 Reference value :  9.75920e-06
 Reference value :  9.76074e-06
 Reference value :  9.76370e-06
 Reference value :  9.76639e-06
 Reference value :  9.77056e-06
 Reference value :  9.77643e-06
 Reference value :  9.78817e-06
 Reference value :  9.81134e-06
 Reference value :  9.85182e-06
 Reference value :  9.93277e-06
 Reference value :  1.00000e-05
 Reference value :  1.00000e-05
 Reference value :  1.00000e-05
 Reference value :  1.00001e-05
 Reference value :  1.00001e-05
 Reference value :  1.00001e-05
 Reference value :  1.00001e-05
 Reference value :  1.00001e-05
 Reference value :  1.00002e-05
 Reference value :  1.00002e-05
 Reference value :  1.00004e-05
 Reference value :  1.00006e-05
 Reference value :  1.00009e-05
 Reference value :  1.00015e-05
 Reference value :  1.00021e-05
 Reference value :  1.00028e-05
 Reference value :  1.00036e-05
 Reference value :  1.00045e-05
 Reference value :  1.00056e-05
 Reference value :  1.00067e-05
 Reference value :  1.00080e-05
 Reference value :  1.00095e-05
 Reference value :  1.00107e-05
 Reference value :  1.00121e-05
 Reference value :  1.00138e-05
 Reference value :  1.00155e-05
 Reference value :  1.00173e-05
 Reference value :  1.00191e-05
 Reference value :  1.00214e-05
 Reference value :  1.00239e-05
 Reference value :  1.00287e-05
 Reference value :  1.00359e-05
 Reference value :  1.00502e-05
 Reference value :  1.00669e-05
 Reference value :  1.00824e-05
 Reference value :  1.00998e-05
 Reference value :  1.01112e-05
 Reference value :  1.01216e-05
 Reference value :  1.01319e-05
 Reference value :  1.01425e-05
 Reference value :  1.01587e-05
 Reference value :  1.01773e-05
 Reference value :  1.02075e-05
 Reference value :  1.02477e-05
 Reference value :  1.02501e-05
 Reference value :  1.02501e-05
 Reference value :  1.02501e-05
 Reference value :  1.02502e-05
 Reference value :  1.02502e-05
 Reference value :  1.02502e-05
 Reference value :  1.02502e-05
 Reference value :  1.02502e-05
 Reference value :  1.02502e-05
 Reference value :  1.02502e-05
 Reference value :  1.02502e-05
 Reference value :  1.02503e-05
 Reference value :  1.02504e-05
 Reference value :  1.02506e-05
 Reference value :  1.02509e-05
 Reference value :  1.02515e-05
 Reference value :  1.02522e-05
 Reference value :  1.02530e-05
 Reference value :  1.02538e-05
 Reference value :  1.02549e-05
 Reference value :  1.02558e-05
 Reference value :  1.02568e-05
 Reference value :  1.02578e-05
 Reference value :  1.02588e-05
 Reference value :  1.02601e-05
 Reference value :  1.02615e-05
 Reference value :  1.02644e-05
 Reference value :  1.02673e-05
 Reference value :  1.02724e-05
 Reference value :  1.02791e-05
 Reference value :  1.02923e-05
 Reference value :  1.03188e-05
 Reference value :  1.03717e-05
 Reference value :  1.04777e-05
 Reference value :  1.05000e-05
 Reference value :  1.05000e-05
 Reference value :  1.05000e-05
 Reference value :  1.05001e-05
 Reference value :  1.05001e-05
 Reference value :  1.05001e-05
 Reference value :  1.05001e-05
 Reference value :  1.05001e-05
 Reference value :  1.05002e-05
 Reference value :  1.05002e-05
 Reference value :  1.05004e-05
 Reference value :  1.05006e-05
 Reference value :  1.05009e-05
 Reference value :  1.05015e-05
 Reference value :  1.05021e-05
 Reference value :  1.05029e-05
 Reference value :  1.05037e-05
 Reference value :  1.05046e-05
 Reference value :  1.05056e-05
 Reference value :  1.05066e-05
 Reference value :  1.05075e-05
 Reference value :  1.05085e-05
 Reference value :  1.05095e-05
 Reference value :  1.05106e-05
 Reference value :  1.05121e-05
 Reference value :  1.05140e-05
 Reference value :  1.05169e-05
 Reference value :  1.05200e-05
 Reference value :  1.05226e-05
 Reference value :  1.05247e-05
 Reference value :  1.05268e-05
 Reference value :  1.05288e-05
 Reference value :  1.05310e-05
 Reference value :  1.05335e-05
 Reference value :  1.05361e-05
 Reference value :  1.05395e-05
 Reference value :  1.05442e-05
 Reference value :  1.05500e-05
 Reference value :  1.05559e-05
 Reference value :  1.05604e-05
 Reference value :  1.05652e-05
 Reference value :  1.05704e-05
 Reference value :  1.05746e-05
 Reference value :  1.05791e-05
 Reference value :  1.05854e-05
 Reference value :  1.05924e-05
 Reference value :  1.05990e-05
 Reference value :  1.06053e-05
 Reference value :  1.06127e-05
 Reference value :  1.06276e-05
 Reference value :  1.06460e-05
 Reference value :  1.06784e-05
 Reference value :  1.07336e-05
 Reference value :  1.07501e-05
 Reference value :  1.07501e-05
 Reference value :  1.07501e-05
 Reference value :  1.07502e-05
 Reference value :  1.07502e-05
 Reference value :  1.07502e-05
 Reference value :  1.07502e-05
 Reference value :  1.07502e-05
 Reference value :  1.07502e-05
 Reference value :  1.07502e-05
 Reference value :  1.07502e-05
 Reference value :  1.07503e-05
 Reference value :  1.07504e-05
 Reference value :  1.07506e-05
 Reference value :  1.07509e-05
 Reference value :  1.07515e-05
 Reference value :  1.07522e-05
 Reference value :  1.07530e-05
 Reference value :  1.07538e-05
 Reference value :  1.07549e-05
 Reference value :  1.07557e-05
 Reference value :  1.07567e-05
 Reference value :  1.07580e-05
 Reference value :  1.07591e-05
 Reference value :  1.07606e-05
 Reference value :  1.07632e-05
 Reference value :  1.07659e-05
 Reference value :  1.07698e-05
 Reference value :  1.07755e-05
 Reference value :  1.07870e-05
 Reference value :  1.08099e-05
 Reference value :  1.08510e-05
 Reference value :  1.09333e-05
 Reference value :  1.10000e-05
 Reference value :  1.10000e-05
 Reference value :  1.10000e-05
 Reference value :  1.10001e-05
 Reference value :  1.10001e-05
 Reference value :  1.10001e-05
 Reference value :  1.10001e-05
 Reference value :  1.10001e-05
 Reference value :  1.10002e-05
 Reference value :  1.10002e-05
 Reference value :  1.10004e-05
 Reference value :  1.10006e-05
 Reference value :  1.10009e-05
 Reference value :  1.10015e-05
 Reference value :  1.10021e-05
 Reference value :  1.10028e-05
 Reference value :  1.10036e-05
 Reference value :  1.10045e-05
 Reference value :  1.10056e-05
 Reference value :  1.10067e-05
 Reference value :  1.10080e-05
 Reference value :  1.10095e-05
 Reference value :  1.10107e-05
 Reference value :  1.10121e-05
 Reference value :  1.10137e-05
 Reference value :  1.10155e-05
 Reference value :  1.10175e-05
 Reference value :  1.10193e-05
 Reference value :  1.10217e-05
 Reference value :  1.10243e-05
 Reference value :  1.10290e-05
 Reference value :  1.10363e-05
 Reference value :  1.10497e-05
 Reference value :  1.10763e-05
 Reference value :  1.11261e-05
 Reference value :  1.12255e-05
 Reference value :  1.12501e-05
 Reference value :  1.12501e-05
 Reference value :  1.12501e-05
 Reference value :  1.12502e-05
 Reference value :  1.12502e-05
 Reference value :  1.12502e-05
 Reference value :  1.12502e-05
 Reference value :  1.12502e-05
 Reference value :  1.12502e-05
 Reference value :  1.12502e-05
 Reference value :  1.12502e-05
 Reference value :  1.12503e-05
 Reference value :  1.12504e-05
 Reference value :  1.12506e-05
 Reference value :  1.12509e-05
 Reference value :  1.12515e-05
 Reference value :  1.12522e-05
 Reference value :  1.12530e-05
 Reference value :  1.12538e-05
 Reference value :  1.12549e-05
 Reference value :  1.12558e-05
 Reference value :  1.12568e-05
 Reference value :  1.12577e-05
 Reference value :  1.12587e-05
 Reference value :  1.12599e-05
 Reference value :  1.12613e-05
 Reference value :  1.12630e-05
 Reference value :  1.12647e-05
 Reference value :  1.12676e-05
 Reference value :  1.12707e-05
 Reference value :  1.12755e-05
 Reference value :  1.12822e-05
 Reference value :  1.12954e-05
 Reference value :  1.13146e-05
 Reference value :  1.13487e-05
 Reference value :  1.14072e-05
 Reference value :  1.15000e-05
 Reference value :  1.15000e-05
 Reference value :  1.15000e-05
 Reference value :  1.15001e-05
 Reference value :  1.15001e-05
 Reference value :  1.15001e-05
 Reference value :  1.15001e-05
 Reference value :  1.15001e-05
 Reference value :  1.15002e-05
 Reference value :  1.15002e-05
 Reference value :  1.15004e-05
 Reference value :  1.15006e-05
 Reference value :  1.15009e-05
 Reference value :  1.15015e-05
 Reference value :  1.15021e-05
 Reference value :  1.15029e-05
 Reference value :  1.15037e-05
 Reference value :  1.15046e-05
 Reference value :  1.15056e-05
 Reference value :  1.15065e-05
 Reference value :  1.15074e-05
 Reference value :  1.15084e-05
 Reference value :  1.15094e-05
 Reference value :  1.15105e-05
 Reference value :  1.15119e-05
 Reference value :  1.15137e-05
 Reference value :  1.15162e-05
 Reference value :  1.15181e-05
 Reference value :  1.15202e-05
 Reference value :  1.15224e-05
 Reference value :  1.15240e-05
 Reference value :  1.15256e-05
 Reference value :  1.15274e-05
 Reference value :  1.15292e-05
 Reference value :  1.15312e-05
 Reference value :  1.15334e-05
 Reference value :  1.15365e-05
 Reference value :  1.15398e-05
 Reference value :  1.15462e-05
 Reference value :  1.15552e-05
 Reference value :  1.15697e-05
 Reference value :  1.15946e-05
 Reference value :  1.16396e-05
 Reference value :  1.16970e-05
 Reference value :  1.17501e-05
 Reference value :  1.17501e-05
 Reference value :  1.17501e-05
 Reference value :  1.17502e-05
 Reference value :  1.17502e-05
 Reference value :  1.17502e-05
 Reference value :  1.17502e-05
 Reference value :  1.17502e-05
 Reference value :  1.17502e-05
 Reference value :  1.17502e-05
 Reference value :  1.17502e-05
 Reference value :  1.17503e-05
 Reference value :  1.17504e-05
 Reference value :  1.17506e-05
 Reference value :  1.17509e-05
 Reference value :  1.17515e-05
 Reference value :  1.17522e-05
 Reference value :  1.17530e-05
 Reference value :  1.17538e-05
 Reference value :  1.17549e-05
 Reference value :  1.17558e-05
 Reference value :  1.17568e-05
 Reference value :  1.17580e-05
 Reference value :  1.17592e-05
 Reference value :  1.17607e-05
 Reference value :  1.17633e-05
 Reference value :  1.17661e-05
 Reference value :  1.17700e-05
 Reference value :  1.17758e-05
 Reference value :  1.17876e-05
 Reference value :  1.18106e-05
 Reference value :  1.18520e-05
 Reference value :  1.19348e-05
 Reference value :  1.20000e-05
 Reference value :  1.20000e-05
 Reference value :  1.20000e-05
 Reference value :  1.20001e-05
 Reference value :  1.20001e-05
 Reference value :  1.20001e-05
 Reference value :  1.20001e-05
 Reference value :  1.20001e-05
 Reference value :  1.20002e-05
 Reference value :  1.20002e-05
 Reference value :  1.20004e-05
 Reference value :  1.20006e-05
 Reference value :  1.20009e-05
 Reference value :  1.20015e-05
 Reference value :  1.20021e-05
 Reference value :  1.20028e-05
 Reference value :  1.20036e-05
 Reference value :  1.20045e-05
 Reference value :  1.20056e-05
 Reference value :  1.20066e-05
 Reference value :  1.20080e-05
 Reference value :  1.20093e-05
 Reference value :  1.20105e-05
 Reference value :  1.20120e-05
 Reference value :  1.20136e-05
 Reference value :  1.20153e-05
 Reference value :  1.20173e-05
 Reference value :  1.20192e-05
 Reference value :  1.20221e-05
 Reference value :  1.20250e-05
 Reference value :  1.20306e-05
 Reference value :  1.20396e-05
 Reference value :  1.20555e-05
 Reference value :  1.20873e-05
 Reference value :  1.21463e-05
 Reference value :  1.22501e-05
 Reference value :  1.22501e-05
 Reference value :  1.22501e-05
 Reference value :  1.22502e-05
 Reference value :  1.22502e-05
 Reference value :  1.22502e-05
 Reference value :  1.22502e-05
 Reference value :  1.22502e-05
 Reference value :  1.22502e-05
 Reference value :  1.22502e-05
 Reference value :  1.22502e-05
 Reference value :  1.22503e-05
 Reference value :  1.22504e-05
 Reference value :  1.22506e-05
 Reference value :  1.22509e-05
 Reference value :  1.22515e-05
 Reference value :  1.22522e-05
 Reference value :  1.22530e-05
 Reference value :  1.22538e-05
 Reference value :  1.22549e-05
 Reference value :  1.22558e-05
 Reference value :  1.22568e-05
 Reference value :  1.22577e-05
 Reference value :  1.22587e-05
 Reference value :  1.22599e-05
 Reference value :  1.22613e-05
 Reference value :  1.22630e-05
 Reference value :  1.22647e-05
 Reference value :  1.22676e-05
 Reference value :  1.22706e-05
 Reference value :  1.22754e-05
 Reference value :  1.22821e-05
 Reference value :  1.22951e-05
 Reference value :  1.23140e-05
 Reference value :  1.23473e-05
 Reference value :  1.24067e-05
 Reference value :  1.25000e-05
 Reference value :  1.25000e-05
 Reference value :  1.25000e-05
 Reference value :  1.25001e-05
 Reference value :  1.25001e-05
 Reference value :  1.25001e-05
 Reference value :  1.25001e-05
 Reference value :  1.25001e-05
 Reference value :  1.25002e-05
 Reference value :  1.25002e-05
 Reference value :  1.25004e-05
 Reference value :  1.25006e-05
 Reference value :  1.25009e-05
 Reference value :  1.25015e-05
 Reference value :  1.25021e-05
 Reference value :  1.25029e-05
 Reference value :  1.25037e-05
 Reference value :  1.25046e-05
 Reference value :  1.25056e-05
 Reference value :  1.25065e-05
 Reference value :  1.25074e-05
 Reference value :  1.25083e-05
 Reference value :  1.25094e-05
 Reference value :  1.25105e-05
 Reference value :  1.25119e-05
 Reference value :  1.25138e-05
 Reference value :  1.25157e-05
 Reference value :  1.25175e-05
 Reference value :  1.25195e-05
 Reference value :  1.25216e-05
 Reference value :  1.25233e-05
 Reference value :  1.25251e-05
 Reference value :  1.25270e-05
 Reference value :  1.25290e-05
 Reference value :  1.25308e-05
 Reference value :  1.25332e-05
 Reference value :  1.25361e-05
 Reference value :  1.25394e-05
 Reference value :  1.25447e-05
 Reference value :  1.25523e-05
 Reference value :  1.25645e-05
 Reference value :  1.25845e-05
 Reference value :  1.26042e-05
 Reference value :  1.26250e-05
 Reference value :  1.26443e-05
 Reference value :  1.26538e-05
 Reference value :  1.26623e-05
 Reference value :  1.26716e-05
 Reference value :  1.26876e-05
 Reference value :  1.27103e-05
 Reference value :  1.27437e-05
 Reference value :  1.27501e-05
 Reference value :  1.27501e-05
 Reference value :  1.27501e-05
 Reference value :  1.27502e-05
 Reference value :  1.27502e-05
 Reference value :  1.27502e-05
 Reference value :  1.27502e-05
 Reference value :  1.27502e-05
 Reference value :  1.27502e-05
 Reference value :  1.27502e-05
 Reference value :  1.27502e-05
 Reference value :  1.27503e-05
 Reference value :  1.27504e-05
 Reference value :  1.27506e-05
 Reference value :  1.27509e-05
 Reference value :  1.27515e-05
 Reference value :  1.27522e-05
 Reference value :  1.27530e-05
 Reference value :  1.27538e-05
 Reference value :  1.27549e-05
 Reference value :  1.27558e-05
 Reference value :  1.27568e-05
 Reference value :  1.27581e-05
 Reference value :  1.27593e-05
 Reference value :  1.27608e-05
 Reference value :  1.27638e-05
 Reference value :  1.27665e-05
 Reference value :  1.27707e-05
 Reference value :  1.27767e-05
 Reference value :  1.27835e-05
 Reference value :  1.27898e-05
 Reference value :  1.27965e-05
 Reference value :  1.28033e-05
 Reference value :  1.28105e-05
 Reference value :  1.28249e-05
 Reference value :  1.28393e-05
 Reference value :  1.28518e-05
 Reference value :  1.28666e-05
 Reference value :  1.28836e-05
 Reference value :  1.29117e-05
 Reference value :  1.29486e-05
 Reference value :  1.30000e-05
 Reference value :  1.30000e-05
 Reference value :  1.30000e-05
 Reference value :  1.30001e-05
 Reference value :  1.30001e-05
 Reference value :  1.30001e-05
 Reference value :  1.30001e-05
 Reference value :  1.30001e-05
 Reference value :  1.30002e-05
 Reference value :  1.30002e-05
 Reference value :  1.30004e-05
 Reference value :  1.30006e-05
 Reference value :  1.30009e-05
 Reference value :  1.30015e-05
 Reference value :  1.30021e-05
 Reference value :  1.30028e-05
 Reference value :  1.30036e-05
 Reference value :  1.30045e-05
 Reference value :  1.30056e-05
 Reference value :  1.30066e-05
 Reference value :  1.30079e-05
 Reference value :  1.30093e-05
 Reference value :  1.30104e-05
 Reference value :  1.30119e-05
 Reference value :  1.30134e-05
 Reference value :  1.30151e-05
 Reference value :  1.30171e-05
 Reference value :  1.30192e-05
 Reference value :  1.30214e-05
 Reference value :  1.30260e-05
 Reference value :  1.30335e-05
 Reference value :  1.30464e-05
 Reference value :  1.30716e-05
 Reference value :  1.31222e-05
 Reference value :  1.32233e-05
 Reference value :  1.32501e-05
 Reference value :  1.32501e-05
 Reference value :  1.32501e-05
 Reference value :  1.32502e-05
 Reference value :  1.32502e-05
 Reference value :  1.32502e-05
 Reference value :  1.32502e-05
 Reference value :  1.32502e-05
 Reference value :  1.32502e-05
 Reference value :  1.32502e-05
 Reference value :  1.32502e-05
 Reference value :  1.32503e-05
 Reference value :  1.32504e-05
 Reference value :  1.32506e-05
 Reference value :  1.32509e-05
 Reference value :  1.32515e-05
 Reference value :  1.32522e-05
 Reference value :  1.32530e-05
 Reference value :  1.32538e-05
 Reference value :  1.32549e-05
 Reference value :  1.32558e-05
 Reference value :  1.32568e-05
 Reference value :  1.32577e-05
 Reference value :  1.32587e-05
 Reference value :  1.32599e-05
 Reference value :  1.32613e-05
 Reference value :  1.32630e-05
 Reference value :  1.32647e-05
 Reference value :  1.32676e-05
 Reference value :  1.32707e-05
 Reference value :  1.32754e-05
 Reference value :  1.32822e-05
 Reference value :  1.32953e-05
 Reference value :  1.33145e-05
 Reference value :  1.33485e-05
 Reference value :  1.34073e-05
 Reference value :  1.35000e-05
 Reference value :  1.35000e-05
 Reference value :  1.35000e-05
 Reference value :  1.35001e-05
 Reference value :  1.35001e-05
 Reference value :  1.35001e-05
 Reference value :  1.35001e-05
 Reference value :  1.35001e-05
 Reference value :  1.35002e-05
 Reference value :  1.35002e-05
 Reference value :  1.35004e-05
 Reference value :  1.35006e-05
 Reference value :  1.35009e-05
 Reference value :  1.35015e-05
 Reference value :  1.35021e-05
 Reference value :  1.35028e-05
 Reference value :  1.35037e-05
 Reference value :  1.35046e-05
 Reference value :  1.35056e-05
 Reference value :  1.35065e-05
 Reference value :  1.35074e-05
 Reference value :  1.35083e-05
 Reference value :  1.35094e-05
 Reference value :  1.35104e-05
 Reference value :  1.35118e-05
 Reference value :  1.35138e-05
 Reference value :  1.35154e-05
 Reference value :  1.35171e-05
 Reference value :  1.35187e-05
 Reference value :  1.35207e-05
 Reference value :  1.35224e-05
 Reference value :  1.35237e-05
 Reference value :  1.35250e-05
 Reference value :  1.35266e-05
 Reference value :  1.35283e-05
 Reference value :  1.35299e-05
 Reference value :  1.35319e-05
 Reference value :  1.35342e-05
 Reference value :  1.35373e-05
 Reference value :  1.35415e-05
 Reference value :  1.35460e-05
 Reference value :  1.35522e-05
 Reference value :  1.35565e-05
 Reference value :  1.35605e-05
 Reference value :  1.35652e-05
 Reference value :  1.35700e-05
 Reference value :  1.35784e-05
 Reference value :  1.35893e-05
 Reference value :  1.36071e-05
 Reference value :  1.36304e-05
 Reference value :  1.36621e-05
 Reference value :  1.37027e-05
 Reference value :  1.37501e-05
 Reference value :  1.37501e-05
 Reference value :  1.37501e-05
 Reference value :  1.37502e-05
 Reference value :  1.37502e-05
 Reference value :  1.37502e-05
 Reference value :  1.37502e-05
 Reference value :  1.37502e-05
 Reference value :  1.37502e-05
 Reference value :  1.37502e-05
 Reference value :  1.37502e-05
 Reference value :  1.37503e-05
 Reference value :  1.37504e-05
 Reference value :  1.37506e-05
 Reference value :  1.37509e-05
 Reference value :  1.37515e-05
 Reference value :  1.37522e-05
 Reference value :  1.37530e-05
 Reference value :  1.37538e-05
 Reference value :  1.37549e-05
 Reference value :  1.37558e-05
 Reference value :  1.37568e-05
 Reference value :  1.37581e-05
 Reference value :  1.37593e-05
 Reference value :  1.37608e-05
 Reference value :  1.37638e-05
 Reference value :  1.37665e-05
 Reference value :  1.37708e-05
 Reference value :  1.37768e-05
 Reference value :  1.37887e-05
 Reference value :  1.38121e-05
 Reference value :  1.38531e-05
 Reference value :  1.39350e-05
 Reference value :  1.40000e-05
 Reference value :  1.40000e-05
 Reference value :  1.40000e-05
 Reference value :  1.40001e-05
 Reference value :  1.40001e-05
 Reference value :  1.40001e-05
 Reference value :  1.40001e-05
 Reference value :  1.40001e-05
 Reference value :  1.40002e-05
 Reference value :  1.40002e-05
 Reference value :  1.40004e-05
 Reference value :  1.40006e-05
 Reference value :  1.40009e-05
 Reference value :  1.40015e-05
 Reference value :  1.40021e-05
 Reference value :  1.40029e-05
 Reference value :  1.40037e-05
 Reference value :  1.40046e-05
 Reference value :  1.40056e-05
 Reference value :  1.40067e-05
 Reference value :  1.40079e-05
 Reference value :  1.40094e-05
 Reference value :  1.40105e-05
 Reference value :  1.40119e-05
 Reference value :  1.40134e-05
 Reference value :  1.40151e-05
 Reference value :  1.40169e-05
 Reference value :  1.40187e-05
 Reference value :  1.40208e-05
 Reference value :  1.40248e-05
 Reference value :  1.40329e-05
 Reference value :  1.40445e-05
 Reference value :  1.40675e-05
 Reference value :  1.41136e-05
 Reference value :  1.42058e-05
 Reference value :  1.42501e-05
 Reference value :  1.42501e-05
 Reference value :  1.42501e-05
 Reference value :  1.42502e-05
 Reference value :  1.42502e-05
 Reference value :  1.42502e-05
 Reference value :  1.42502e-05
 Reference value :  1.42502e-05
 Reference value :  1.42502e-05
 Reference value :  1.42502e-05
 Reference value :  1.42502e-05
 Reference value :  1.42503e-05
 Reference value :  1.42504e-05
 Reference value :  1.42506e-05
 Reference value :  1.42509e-05
 Reference value :  1.42515e-05
 Reference value :  1.42522e-05
 Reference value :  1.42530e-05
 Reference value :  1.42538e-05
 Reference value :  1.42549e-05
 Reference value :  1.42558e-05
 Reference value :  1.42568e-05
 Reference value :  1.42577e-05
 Reference value :  1.42587e-05
 Reference value :  1.42600e-05
 Reference value :  1.42615e-05
 Reference value :  1.42643e-05
 Reference value :  1.42672e-05
 Reference value :  1.42722e-05
 Reference value :  1.42787e-05
 Reference value :  1.42918e-05
 Reference value :  1.43178e-05
 Reference value :  1.43700e-05
 Reference value :  1.44742e-05
 Reference value :  1.45000e-05
 Reference value :  1.45000e-05
 Reference value :  1.45000e-05
 Reference value :  1.45001e-05
 Reference value :  1.45001e-05
 Reference value :  1.45001e-05
 Reference value :  1.45001e-05
 Reference value :  1.45001e-05
 Reference value :  1.45002e-05
 Reference value :  1.45002e-05
 Reference value :  1.45004e-05
 Reference value :  1.45006e-05
 Reference value :  1.45009e-05
 Reference value :  1.45015e-05
 Reference value :  1.45021e-05
 Reference value :  1.45029e-05
 Reference value :  1.45037e-05
 Reference value :  1.45046e-05
 Reference value :  1.45056e-05
 Reference value :  1.45067e-05
 Reference value :  1.45076e-05
 Reference value :  1.45084e-05
 Reference value :  1.45094e-05
 Reference value :  1.45106e-05
 Reference value :  1.45119e-05
 Reference value :  1.45141e-05
 Reference value :  1.45172e-05
 Reference value :  1.45202e-05
 Reference value :  1.45228e-05
 Reference value :  1.45249e-05
 Reference value :  1.45268e-05
 Reference value :  1.45287e-05
 Reference value :  1.45307e-05
 Reference value :  1.45331e-05
 Reference value :  1.45357e-05
 Reference value :  1.45390e-05
 Reference value :  1.45436e-05
 Reference value :  1.45506e-05
 Reference value :  1.45616e-05
 Reference value :  1.45737e-05
 Reference value :  1.45942e-05
 Reference value :  1.46157e-05
 Reference value :  1.46517e-05
 Reference value :  1.46884e-05
 Reference value :  1.47278e-05
 Reference value :  1.47501e-05
 Reference value :  1.47501e-05
 Reference value :  1.47501e-05
 Reference value :  1.47502e-05
 Reference value :  1.47502e-05
 Reference value :  1.47502e-05
 Reference value :  1.47502e-05
 Reference value :  1.47502e-05
 Reference value :  1.47502e-05
 Reference value :  1.47502e-05
 Reference value :  1.47502e-05
 Reference value :  1.47503e-05
 Reference value :  1.47504e-05
 Reference value :  1.47506e-05
 Reference value :  1.47509e-05
 Reference value :  1.47515e-05
 Reference value :  1.47522e-05
 Reference value :  1.47530e-05
 Reference value :  1.47538e-05
 Reference value :  1.47549e-05
 Reference value :  1.47558e-05
 Reference value :  1.47568e-05
 Reference value :  1.47580e-05
 Reference value :  1.47592e-05
 Reference value :  1.47606e-05
 Reference value :  1.47633e-05
 Reference value :  1.47660e-05
 Reference value :  1.47699e-05
 Reference value :  1.47757e-05
 Reference value :  1.47874e-05
 Reference value :  1.48104e-05
 Reference value :  1.48517e-05
 Reference value :  1.49344e-05
 Reference value :  1.50000e-05
 Reference value :  1.50000e-05
 Reference value :  1.50000e-05
 Reference value :  1.50001e-05
 Reference value :  1.50001e-05
 Reference value :  1.50001e-05
 Reference value :  1.50001e-05
 Reference value :  1.50001e-05
 Reference value :  1.50002e-05
 Reference value :  1.50002e-05
 Reference value :  1.50004e-05
 Reference value :  1.50006e-05
 Reference value :  1.50009e-05
 Reference value :  1.50015e-05
 Reference value :  1.50021e-05
 Reference value :  1.50029e-05
 Reference value :  1.50037e-05
 Reference value :  1.50046e-05
 Reference value :  1.50056e-05
 Reference value :  1.50067e-05
 Reference value :  1.50079e-05
 Reference value :  1.50092e-05
 Reference value :  1.50104e-05
 Reference value :  1.50119e-05
 Reference value :  1.50135e-05
 Reference value :  1.50152e-05
 Reference value :  1.50171e-05
 Reference value :  1.50191e-05
 Reference value :  1.50212e-05
 Reference value :  1.50255e-05
 Reference value :  1.50337e-05
 Reference value :  1.50457e-05
 Reference value :  1.50697e-05
 Reference value :  1.51177e-05
 Reference value :  1.52137e-05
 Reference value :  1.52501e-05
 Reference value :  1.52501e-05
 Reference value :  1.52501e-05
 Reference value :  1.52502e-05
 Reference value :  1.52502e-05
 Reference value :  1.52502e-05
 Reference value :  1.52502e-05
 Reference value :  1.52502e-05
 Reference value :  1.52502e-05
 Reference value :  1.52502e-05
 Reference value :  1.52502e-05
 Reference value :  1.52503e-05
 Reference value :  1.52504e-05
 Reference value :  1.52506e-05
 Reference value :  1.52509e-05
 Reference value :  1.52515e-05
 Reference value :  1.52522e-05
 Reference value :  1.52530e-05
 Reference value :  1.52538e-05
 Reference value :  1.52549e-05
 Reference value :  1.52558e-05
 Reference value :  1.52568e-05
 Reference value :  1.52577e-05
 Reference value :  1.52587e-05
 Reference value :  1.52600e-05
 Reference value :  1.52614e-05
 Reference value :  1.52643e-05
 Reference value :  1.52672e-05
 Reference value :  1.52722e-05
 Reference value :  1.52787e-05
 Reference value :  1.52917e-05
 Reference value :  1.53178e-05
 Reference value :  1.53698e-05
 Reference value :  1.54740e-05
 Reference value :  1.55000e-05
 Reference value :  1.55004e-05
 Reference value :  1.55011e-05
 Reference value :  1.55015e-05
 Reference value :  1.55019e-05
 Reference value :  1.55026e-05
 Reference value :  1.55034e-05
 Reference value :  1.55043e-05
 Reference value :  1.55053e-05
 Reference value :  1.55064e-05
 Reference value :  1.55073e-05
 Reference value :  1.55084e-05
 Reference value :  1.55095e-05
 Reference value :  1.55107e-05
 Reference value :  1.55121e-05
 Reference value :  1.55141e-05
 Reference value :  1.55170e-05
 Reference value :  1.55202e-05
 Reference value :  1.55228e-05
 Reference value :  1.55249e-05
 Reference value :  1.55270e-05
 Reference value :  1.55290e-05
 Reference value :  1.55310e-05
 Reference value :  1.55335e-05
 Reference value :  1.55361e-05
 Reference value :  1.55394e-05
 Reference value :  1.55441e-05
 Reference value :  1.55501e-05
 Reference value :  1.55570e-05
 Reference value :  1.55620e-05
 Reference value :  1.55676e-05
 Reference value :  1.55756e-05
 Reference value :  1.55843e-05
 Reference value :  1.55947e-05
 Reference value :  1.56060e-05
 Reference value :  1.56165e-05
 Reference value :  1.56375e-05
 Reference value :  1.56639e-05
 Reference value :  1.57052e-05
 Reference value :  1.57501e-05
 Reference value :  1.57501e-05
 Reference value :  1.57501e-05
 Reference value :  1.57502e-05
 Reference value :  1.57502e-05
 Reference value :  1.57502e-05
 Reference value :  1.57502e-05
 Reference value :  1.57502e-05
 Reference value :  1.57502e-05
 Reference value :  1.57502e-05
 Reference value :  1.57502e-05
 Reference value :  1.57503e-05
 Reference value :  1.57504e-05
 Reference value :  1.57506e-05
 Reference value :  1.57509e-05
 Reference value :  1.57515e-05
 Reference value :  1.57522e-05
 Reference value :  1.57530e-05
 Reference value :  1.57538e-05
 Reference value :  1.57549e-05
 Reference value :  1.57557e-05
 Reference value :  1.57567e-05
 Reference value :  1.57578e-05
 Reference value :  1.57590e-05
 Reference value :  1.57604e-05
 Reference value :  1.57632e-05
 Reference value :  1.57658e-05
 Reference value :  1.57696e-05
 Reference value :  1.57751e-05
 Reference value :  1.57861e-05
 Reference value :  1.58080e-05
 Reference value :  1.58492e-05
 Reference value :  1.59315e-05
 Reference value :  1.60000e-05
 Reference value :  1.60000e-05
 Reference value :  1.60000e-05
 Reference value :  1.60001e-05
[...]
 Reference value :  2.76250e-04
 Reference value :  2.76250e-04
 Reference value :  2.76250e-04
 Reference value :  2.76250e-04
 Reference value :  2.76250e-04
 Reference value :  2.76250e-04
 Reference value :  2.76251e-04
 Reference value :  2.76251e-04
 Reference value :  2.76251e-04
 Reference value :  2.76252e-04
 Reference value :  2.76253e-04
 Reference value :  2.76254e-04
 Reference value :  2.76255e-04
 Reference value :  2.76256e-04
 Reference value :  2.76257e-04
 Reference value :  2.76258e-04
 Reference value :  2.76259e-04
 Reference value :  2.76261e-04
 Reference value :  2.76263e-04
 Reference value :  2.76266e-04
 Reference value :  2.76270e-04
 Reference value :  2.76276e-04
 Reference value :  2.76288e-04
 Reference value :  2.76311e-04
 Reference value :  2.76352e-04
 Reference value :  2.76434e-04
 Reference value :  2.76500e-04
 Reference value :  2.76500e-04
 Reference value :  2.76500e-04
 Reference value :  2.76500e-04
 Reference value :  2.76500e-04
 Reference value :  2.76500e-04
 Reference value :  2.76500e-04
 Reference value :  2.76500e-04
 Reference value :  2.76500e-04
 Reference value :  2.76500e-04
 Reference value :  2.76500e-04
 Reference value :  2.76501e-04
 Reference value :  2.76501e-04
 Reference value :  2.76502e-04
 Reference value :  2.76502e-04
 Reference value :  2.76503e-04
 Reference value :  2.76504e-04
 Reference value :  2.76505e-04
 Reference value :  2.76506e-04
 Reference value :  2.76507e-04
 Reference value :  2.76508e-04
 Reference value :  2.76509e-04
 Reference value :  2.76510e-04
 Reference value :  2.76512e-04
 Reference value :  2.76513e-04
 Reference value :  2.76515e-04
 Reference value :  2.76517e-04
 Reference value :  2.76519e-04
 Reference value :  2.76521e-04
 Reference value :  2.76526e-04
 Reference value :  2.76533e-04
 Reference value :  2.76546e-04
 Reference value :  2.76572e-04
 Reference value :  2.76622e-04
 Reference value :  2.76724e-04
 Reference value :  2.76750e-04
 Reference value :  2.76750e-04
 Reference value :  2.76750e-04
 Reference value :  2.76750e-04
 Reference value :  2.76750e-04
 Reference value :  2.76750e-04
 Reference value :  2.76750e-04
 Reference value :  2.76750e-04
 Reference value :  2.76750e-04
 Reference value :  2.76750e-04
 Reference value :  2.76750e-04
 Reference value :  2.76750e-04
 Reference value :  2.76750e-04
 Reference value :  2.76751e-04
 Reference value :  2.76751e-04
 Reference value :  2.76751e-04
 Reference value :  2.76752e-04
 Reference value :  2.76753e-04
 Reference value :  2.76754e-04
 Reference value :  2.76755e-04
 Reference value :  2.76756e-04
 Reference value :  2.76757e-04
 Reference value :  2.76758e-04
 Reference value :  2.76759e-04
 Reference value :  2.76760e-04
 Reference value :  2.76761e-04
 Reference value :  2.76763e-04
 Reference value :  2.76765e-04
 Reference value :  2.76768e-04
 Reference value :  2.76771e-04
 Reference value :  2.76775e-04
 Reference value :  2.76782e-04
 Reference value :  2.76795e-04
 Reference value :  2.76815e-04
 Reference value :  2.76848e-04
 Reference value :  2.76907e-04
 Reference value :  2.77000e-04
 Reference value :  2.77000e-04
 Reference value :  2.77000e-04
 Reference value :  2.77000e-04
 Reference value :  2.77000e-04
 Reference value :  2.77000e-04
 Reference value :  2.77000e-04
 Reference value :  2.77000e-04
 Reference value :  2.77000e-04
 Reference value :  2.77000e-04
 Reference value :  2.77000e-04
 Reference value :  2.77001e-04
 Reference value :  2.77001e-04
 Reference value :  2.77002e-04
 Reference value :  2.77002e-04
 Reference value :  2.77003e-04
 Reference value :  2.77004e-04
 Reference value :  2.77005e-04
 Reference value :  2.77006e-04
 Reference value :  2.77006e-04
 Reference value :  2.77007e-04
 Reference value :  2.77008e-04
 Reference value :  2.77009e-04
 Reference value :  2.77010e-04
 Reference value :  2.77012e-04
 Reference value :  2.77014e-04
 Reference value :  2.77015e-04
 Reference value :  2.77017e-04
 Reference value :  2.77019e-04
 Reference value :  2.77021e-04
 Reference value :  2.77022e-04
 Reference value :  2.77024e-04
 Reference value :  2.77025e-04
 Reference value :  2.77027e-04
 Reference value :  2.77028e-04
 Reference value :  2.77030e-04
 Reference value :  2.77032e-04
 Reference value :  2.77034e-04
 Reference value :  2.77037e-04
 Reference value :  2.77041e-04
 Reference value :  2.77050e-04
 Reference value :  2.77061e-04
 Reference value :  2.77080e-04
 Reference value :  2.77099e-04
 Reference value :  2.77121e-04
 Reference value :  2.77144e-04
 Reference value :  2.77167e-04
 Reference value :  2.77192e-04
 Reference value :  2.77221e-04
 Reference value :  2.77250e-04
 Reference value :  2.77250e-04
 Reference value :  2.77250e-04
 Reference value :  2.77250e-04
 Reference value :  2.77250e-04
 Reference value :  2.77250e-04
 Reference value :  2.77250e-04
 Reference value :  2.77250e-04
 Reference value :  2.77250e-04
 Reference value :  2.77250e-04
 Reference value :  2.77250e-04
 Reference value :  2.77250e-04
 Reference value :  2.77250e-04
 Reference value :  2.77251e-04
 Reference value :  2.77251e-04
 Reference value :  2.77251e-04
 Reference value :  2.77252e-04
 Reference value :  2.77253e-04
 Reference value :  2.77254e-04
 Reference value :  2.77255e-04
 Reference value :  2.77256e-04
 Reference value :  2.77257e-04
 Reference value :  2.77258e-04
 Reference value :  2.77259e-04
 Reference value :  2.77261e-04
 Reference value :  2.77263e-04
 Reference value :  2.77266e-04
 Reference value :  2.77270e-04
 Reference value :  2.77276e-04
 Reference value :  2.77287e-04
 Reference value :  2.77311e-04
 Reference value :  2.77352e-04
 Reference value :  2.77435e-04
 Reference value :  2.77500e-04
 Reference value :  2.77500e-04
 Reference value :  2.77500e-04
 Reference value :  2.77500e-04
 Reference value :  2.77500e-04
 Reference value :  2.77500e-04
 Reference value :  2.77500e-04
 Reference value :  2.77500e-04
 Reference value :  2.77500e-04
 Reference value :  2.77500e-04
 Reference value :  2.77500e-04
 Reference value :  2.77501e-04
 Reference value :  2.77501e-04
 Reference value :  2.77502e-04
 Reference value :  2.77502e-04
 Reference value :  2.77503e-04
 Reference value :  2.77504e-04
 Reference value :  2.77505e-04
 Reference value :  2.77506e-04
 Reference value :  2.77507e-04
 Reference value :  2.77508e-04
 Reference value :  2.77510e-04
 Reference value :  2.77511e-04
 Reference value :  2.77512e-04
 Reference value :  2.77514e-04
 Reference value :  2.77515e-04
 Reference value :  2.77517e-04
 Reference value :  2.77519e-04
 Reference value :  2.77521e-04
 Reference value :  2.77525e-04
 Reference value :  2.77533e-04
 Reference value :  2.77544e-04
 Reference value :  2.77567e-04
 Reference value :  2.77613e-04
 Reference value :  2.77706e-04
 Reference value :  2.77750e-04
 Reference value :  2.77750e-04
 Reference value :  2.77750e-04
 Reference value :  2.77750e-04
 Reference value :  2.77750e-04
 Reference value :  2.77750e-04
 Reference value :  2.77750e-04
 Reference value :  2.77750e-04
 Reference value :  2.77750e-04
 Reference value :  2.77750e-04
 Reference value :  2.77750e-04
 Reference value :  2.77750e-04
 Reference value :  2.77750e-04
 Reference value :  2.77751e-04
 Reference value :  2.77751e-04
 Reference value :  2.77751e-04
 Reference value :  2.77752e-04
 Reference value :  2.77753e-04
 Reference value :  2.77754e-04
 Reference value :  2.77755e-04
 Reference value :  2.77756e-04
 Reference value :  2.77757e-04
 Reference value :  2.77758e-04
 Reference value :  2.77759e-04
 Reference value :  2.77760e-04
 Reference value :  2.77761e-04
 Reference value :  2.77763e-04
 Reference value :  2.77765e-04
 Reference value :  2.77768e-04
 Reference value :  2.77771e-04
 Reference value :  2.77775e-04
 Reference value :  2.77782e-04
 Reference value :  2.77795e-04
 Reference value :  2.77814e-04
 Reference value :  2.77848e-04
 Reference value :  2.77906e-04
 Reference value :  2.78000e-04
 Reference value :  2.78000e-04
 Reference value :  2.78000e-04
 Reference value :  2.78000e-04
 Reference value :  2.78000e-04
 Reference value :  2.78000e-04
 Reference value :  2.78000e-04
 Reference value :  2.78000e-04
 Reference value :  2.78000e-04
 Reference value :  2.78000e-04
 Reference value :  2.78000e-04
 Reference value :  2.78001e-04
 Reference value :  2.78001e-04
 Reference value :  2.78002e-04
 Reference value :  2.78002e-04
 Reference value :  2.78003e-04
 Reference value :  2.78004e-04
 Reference value :  2.78005e-04
 Reference value :  2.78006e-04
 Reference value :  2.78006e-04
 Reference value :  2.78007e-04
 Reference value :  2.78008e-04
 Reference value :  2.78009e-04
 Reference value :  2.78010e-04
 Reference value :  2.78012e-04
 Reference value :  2.78013e-04
 Reference value :  2.78015e-04
 Reference value :  2.78017e-04
 Reference value :  2.78019e-04
 Reference value :  2.78021e-04
 Reference value :  2.78023e-04
 Reference value :  2.78025e-04
 Reference value :  2.78026e-04
 Reference value :  2.78028e-04
 Reference value :  2.78029e-04
 Reference value :  2.78031e-04
 Reference value :  2.78033e-04
 Reference value :  2.78037e-04
 Reference value :  2.78040e-04
 Reference value :  2.78047e-04
 Reference value :  2.78058e-04
 Reference value :  2.78070e-04
 Reference value :  2.78084e-04
 Reference value :  2.78104e-04
 Reference value :  2.78135e-04
 Reference value :  2.78181e-04
 Reference value :  2.78229e-04
 Reference value :  2.78250e-04
 Reference value :  2.78250e-04
 Reference value :  2.78250e-04
 Reference value :  2.78250e-04
 Reference value :  2.78250e-04
 Reference value :  2.78250e-04
 Reference value :  2.78250e-04
 Reference value :  2.78250e-04
 Reference value :  2.78250e-04
 Reference value :  2.78250e-04
 Reference value :  2.78250e-04
 Reference value :  2.78250e-04
 Reference value :  2.78250e-04
 Reference value :  2.78251e-04
 Reference value :  2.78251e-04
 Reference value :  2.78251e-04
 Reference value :  2.78252e-04
 Reference value :  2.78253e-04
 Reference value :  2.78254e-04
 Reference value :  2.78255e-04
 Reference value :  2.78256e-04
 Reference value :  2.78257e-04
 Reference value :  2.78258e-04
 Reference value :  2.78259e-04
 Reference value :  2.78261e-04
 Reference value :  2.78263e-04
 Reference value :  2.78266e-04
 Reference value :  2.78270e-04
 Reference value :  2.78276e-04
 Reference value :  2.78287e-04
 Reference value :  2.78311e-04
 Reference value :  2.78352e-04
 Reference value :  2.78435e-04
 Reference value :  2.78500e-04
 Reference value :  2.78500e-04
 Reference value :  2.78500e-04
 Reference value :  2.78500e-04
 Reference value :  2.78500e-04
 Reference value :  2.78500e-04
 Reference value :  2.78500e-04
 Reference value :  2.78500e-04
 Reference value :  2.78500e-04
 Reference value :  2.78500e-04
 Reference value :  2.78500e-04
 Reference value :  2.78501e-04
 Reference value :  2.78501e-04
 Reference value :  2.78502e-04
 Reference value :  2.78502e-04
 Reference value :  2.78503e-04
 Reference value :  2.78504e-04
 Reference value :  2.78505e-04
 Reference value :  2.78506e-04
 Reference value :  2.78507e-04
 Reference value :  2.78508e-04
 Reference value :  2.78509e-04
 Reference value :  2.78510e-04
 Reference value :  2.78512e-04
 Reference value :  2.78514e-04
 Reference value :  2.78515e-04
 Reference value :  2.78517e-04
 Reference value :  2.78519e-04
 Reference value :  2.78521e-04
 Reference value :  2.78525e-04
 Reference value :  2.78534e-04
 Reference value :  2.78545e-04
 Reference value :  2.78568e-04
 Reference value :  2.78614e-04
 Reference value :  2.78707e-04
 Reference value :  2.78750e-04
 Reference value :  2.78750e-04
 Reference value :  2.78750e-04
 Reference value :  2.78750e-04
 Reference value :  2.78750e-04
 Reference value :  2.78750e-04
 Reference value :  2.78750e-04
 Reference value :  2.78750e-04
 Reference value :  2.78750e-04
 Reference value :  2.78750e-04
 Reference value :  2.78750e-04
 Reference value :  2.78750e-04
 Reference value :  2.78750e-04
 Reference value :  2.78751e-04
 Reference value :  2.78751e-04
 Reference value :  2.78751e-04
 Reference value :  2.78752e-04
 Reference value :  2.78753e-04
 Reference value :  2.78754e-04
 Reference value :  2.78755e-04
 Reference value :  2.78756e-04
 Reference value :  2.78757e-04
 Reference value :  2.78758e-04
 Reference value :  2.78759e-04
 Reference value :  2.78760e-04
 Reference value :  2.78761e-04
 Reference value :  2.78763e-04
 Reference value :  2.78765e-04
 Reference value :  2.78768e-04
 Reference value :  2.78771e-04
 Reference value :  2.78775e-04
 Reference value :  2.78782e-04
 Reference value :  2.78795e-04
 Reference value :  2.78814e-04
 Reference value :  2.78848e-04
 Reference value :  2.78904e-04
 Reference value :  2.79000e-04
 Reference value :  2.79000e-04
 Reference value :  2.79000e-04
 Reference value :  2.79000e-04
 Reference value :  2.79000e-04
 Reference value :  2.79000e-04
 Reference value :  2.79000e-04
 Reference value :  2.79000e-04
 Reference value :  2.79000e-04
 Reference value :  2.79000e-04
 Reference value :  2.79000e-04
 Reference value :  2.79001e-04
 Reference value :  2.79001e-04
 Reference value :  2.79002e-04
 Reference value :  2.79002e-04
 Reference value :  2.79003e-04
 Reference value :  2.79004e-04
 Reference value :  2.79005e-04
 Reference value :  2.79006e-04
 Reference value :  2.79006e-04
 Reference value :  2.79007e-04
 Reference value :  2.79008e-04
 Reference value :  2.79009e-04
 Reference value :  2.79010e-04
 Reference value :  2.79012e-04
 Reference value :  2.79014e-04
 Reference value :  2.79016e-04
 Reference value :  2.79018e-04
 Reference value :  2.79020e-04
 Reference value :  2.79022e-04
 Reference value :  2.79024e-04
 Reference value :  2.79025e-04
 Reference value :  2.79027e-04
 Reference value :  2.79029e-04
 Reference value :  2.79031e-04
 Reference value :  2.79033e-04
 Reference value :  2.79035e-04
 Reference value :  2.79038e-04
 Reference value :  2.79043e-04
 Reference value :  2.79050e-04
 Reference value :  2.79059e-04
 Reference value :  2.79074e-04
 Reference value :  2.79101e-04
 Reference value :  2.79141e-04
 Reference value :  2.79214e-04
 Reference value :  2.79250e-04
 Reference value :  2.79250e-04
 Reference value :  2.79250e-04
 Reference value :  2.79250e-04
 Reference value :  2.79250e-04
 Reference value :  2.79250e-04
 Reference value :  2.79250e-04
 Reference value :  2.79250e-04
 Reference value :  2.79250e-04
 Reference value :  2.79250e-04
 Reference value :  2.79250e-04
 Reference value :  2.79250e-04
 Reference value :  2.79250e-04
 Reference value :  2.79251e-04
 Reference value :  2.79251e-04
 Reference value :  2.79251e-04
 Reference value :  2.79252e-04
 Reference value :  2.79253e-04
 Reference value :  2.79254e-04
 Reference value :  2.79255e-04
 Reference value :  2.79256e-04
 Reference value :  2.79257e-04
 Reference value :  2.79258e-04
 Reference value :  2.79259e-04
 Reference value :  2.79261e-04
 Reference value :  2.79263e-04
 Reference value :  2.79266e-04
 Reference value :  2.79270e-04
 Reference value :  2.79276e-04
 Reference value :  2.79287e-04
 Reference value :  2.79309e-04
 Reference value :  2.79350e-04
 Reference value :  2.79433e-04
 Reference value :  2.79500e-04
 Reference value :  2.79500e-04
 Reference value :  2.79500e-04
 Reference value :  2.79500e-04
 Reference value :  2.79500e-04
 Reference value :  2.79500e-04
 Reference value :  2.79500e-04
 Reference value :  2.79500e-04
 Reference value :  2.79500e-04
 Reference value :  2.79500e-04
 Reference value :  2.79500e-04
 Reference value :  2.79501e-04
 Reference value :  2.79501e-04
 Reference value :  2.79502e-04
 Reference value :  2.79502e-04
 Reference value :  2.79503e-04
 Reference value :  2.79504e-04
 Reference value :  2.79505e-04
 Reference value :  2.79506e-04
 Reference value :  2.79507e-04
 Reference value :  2.79508e-04
 Reference value :  2.79509e-04
 Reference value :  2.79511e-04
 Reference value :  2.79512e-04
 Reference value :  2.79514e-04
 Reference value :  2.79516e-04
 Reference value :  2.79517e-04
 Reference value :  2.79520e-04
 Reference value :  2.79522e-04
 Reference value :  2.79526e-04
 Reference value :  2.79534e-04
 Reference value :  2.79547e-04
 Reference value :  2.79571e-04
 Reference value :  2.79621e-04
 Reference value :  2.79720e-04
 Reference value :  2.79750e-04
 Reference value :  2.79750e-04
 Reference value :  2.79750e-04
 Reference value :  2.79750e-04
 Reference value :  2.79750e-04
 Reference value :  2.79750e-04
 Reference value :  2.79750e-04
 Reference value :  2.79750e-04
 Reference value :  2.79750e-04
 Reference value :  2.79750e-04
 Reference value :  2.79750e-04
 Reference value :  2.79750e-04
 Reference value :  2.79750e-04
 Reference value :  2.79751e-04
 Reference value :  2.79751e-04
 Reference value :  2.79751e-04
 Reference value :  2.79752e-04
 Reference value :  2.79753e-04
 Reference value :  2.79754e-04
 Reference value :  2.79755e-04
 Reference value :  2.79756e-04
 Reference value :  2.79757e-04
 Reference value :  2.79758e-04
 Reference value :  2.79759e-04
 Reference value :  2.79760e-04
 Reference value :  2.79761e-04
 Reference value :  2.79763e-04
 Reference value :  2.79765e-04
 Reference value :  2.79767e-04
 Reference value :  2.79771e-04
 Reference value :  2.79775e-04
 Reference value :  2.79782e-04
 Reference value :  2.79795e-04
 Reference value :  2.79814e-04
 Reference value :  2.79847e-04
 Reference value :  2.79905e-04
 Reference value :  2.80000e-04
 Reference value :  2.80000e-04
 Reference value :  2.80000e-04
 Reference value :  2.80000e-04
 Reference value :  2.80000e-04
 Reference value :  2.80000e-04
 Reference value :  2.80000e-04
 Reference value :  2.80000e-04
 Reference value :  2.80000e-04
 Reference value :  2.80000e-04
 Reference value :  2.80000e-04
 Reference value :  2.80001e-04
 Reference value :  2.80001e-04
 Reference value :  2.80002e-04
 Reference value :  2.80002e-04
 Reference value :  2.80003e-04
 Reference value :  2.80004e-04
 Reference value :  2.80005e-04
 Reference value :  2.80006e-04
 Reference value :  2.80007e-04
 Reference value :  2.80007e-04
 Reference value :  2.80008e-04
 Reference value :  2.80009e-04
 Reference value :  2.80010e-04
 Reference value :  2.80012e-04
 Reference value :  2.80014e-04
 Reference value :  2.80016e-04
 Reference value :  2.80018e-04
 Reference value :  2.80020e-04
 Reference value :  2.80022e-04
 Reference value :  2.80024e-04
 Reference value :  2.80027e-04
 Reference value :  2.80030e-04
 Reference value :  2.80034e-04
 Reference value :  2.80039e-04
 Reference value :  2.80047e-04
 Reference value :  2.80060e-04
 Reference value :  2.80081e-04
 Reference value :  2.80113e-04
 Reference value :  2.80163e-04
 Reference value :  2.80234e-04
 Reference value :  2.80250e-04
 Reference value :  2.80250e-04
 Reference value :  2.80250e-04
 Reference value :  2.80250e-04
 Reference value :  2.80250e-04
 Reference value :  2.80250e-04
 Reference value :  2.80250e-04
 Reference value :  2.80250e-04
 Reference value :  2.80250e-04
 Reference value :  2.80250e-04
 Reference value :  2.80250e-04
 Reference value :  2.80250e-04
 Reference value :  2.80250e-04
 Reference value :  2.80251e-04
 Reference value :  2.80251e-04
 Reference value :  2.80252e-04
 Reference value :  2.80252e-04
 Reference value :  2.80253e-04
 Reference value :  2.80254e-04
 Reference value :  2.80255e-04
 Reference value :  2.80256e-04
 Reference value :  2.80258e-04
 Reference value :  2.80260e-04
 Reference value :  2.80261e-04
 Reference value :  2.80264e-04
 Reference value :  2.80268e-04
 Reference value :  2.80273e-04
 Reference value :  2.80280e-04
 Reference value :  2.80295e-04
 Reference value :  2.80325e-04
 Reference value :  2.80384e-04
 Reference value :  2.80500e-04
No. of Data Rows : 42775
ngspice-44 done
