
Note: Compatibility modes selected: hs a


Circuit: ** sch_path: /home/ece/cace/sar-adc-using-sky130-pdk/runs/run_2025-09-12_20-59-09/parameters/dnl/run_4/sar_output_dnl.sch

option SCALE: Scale is set to 1e-06 for instance and model parameters
option SCALE: Scale is set to 1e-06 for instance and model parameters
option SCALE: Scale is set to 1e-06 for instance and model parameters
option SCALE: Scale is set to 1e-06 for instance and model parameters
Doing analysis at TEMP = 27.000000 and TNOM = 27.000000

Using KLU as Direct Linear Solver
Operating point simulation skipped by 'uic',
  now using transient initial conditions.
 Reference value :  1.00000e-12
 Reference value :  1.19600e-12
 Reference value :  4.47258e-12
 Reference value :  2.00295e-11
 Reference value :  1.00000e-10
 Reference value :  1.33915e-10
 Reference value :  4.05234e-10
 Reference value :  1.37773e-09
 Reference value :  3.32845e-09
 Reference value :  6.04104e-09
 Reference value :  7.93330e-09
 Reference value :  9.21230e-09
 Reference value :  9.88093e-09
 Reference value :  1.28458e-08
 Reference value :  1.39887e-08
 Reference value :  1.55295e-08
 Reference value :  2.11471e-08
 Reference value :  4.01982e-08
 Reference value :  1.02934e-07
 Reference value :  2.50110e-07
 Reference value :  2.50207e-07
 Reference value :  2.50307e-07
 Reference value :  2.50652e-07
 Reference value :  2.51636e-07
 Reference value :  2.53418e-07
 Reference value :  2.54618e-07
 Reference value :  2.56688e-07
 Reference value :  2.69482e-07
 Reference value :  5.00000e-07
 Reference value :  5.00100e-07
 Reference value :  5.00220e-07
 Reference value :  5.00825e-07
 Reference value :  5.01758e-07
 Reference value :  5.03256e-07
 Reference value :  5.05211e-07
 Reference value :  5.09047e-07
 Reference value :  5.11597e-07
 Reference value :  5.14751e-07
 Reference value :  5.18157e-07
 Reference value :  5.34407e-07
 Reference value :  6.71880e-07
 Reference value :  7.50130e-07
 Reference value :  7.50224e-07
 Reference value :  7.50684e-07
 Reference value :  7.51387e-07
 Reference value :  7.53028e-07
 Reference value :  7.54422e-07
 Reference value :  7.56662e-07
 Reference value :  7.65444e-07
 Reference value :  8.07721e-07
 Reference value :  1.00003e-06
 Reference value :  1.00012e-06
 Reference value :  1.00050e-06
 Reference value :  1.00128e-06
 Reference value :  1.00219e-06
 Reference value :  1.00329e-06
 Reference value :  1.00441e-06
 Reference value :  1.00557e-06
 Reference value :  1.00671e-06
 Reference value :  1.00995e-06
 Reference value :  1.01278e-06
 Reference value :  1.01493e-06
 Reference value :  1.01708e-06
 Reference value :  1.02106e-06
 Reference value :  1.03048e-06
 Reference value :  1.04420e-06
 Reference value :  1.05153e-06
 Reference value :  1.05786e-06
 Reference value :  1.06612e-06
 Reference value :  1.13552e-06
 Reference value :  1.25020e-06
 Reference value :  1.25069e-06
 Reference value :  1.25236e-06
 Reference value :  1.25510e-06
 Reference value :  1.26187e-06
 Reference value :  1.50000e-06
 Reference value :  1.50012e-06
 Reference value :  1.50050e-06
 Reference value :  1.50176e-06
 Reference value :  1.50265e-06
 Reference value :  1.50395e-06
 Reference value :  1.50554e-06
 Reference value :  1.50734e-06
 Reference value :  1.50903e-06
 Reference value :  1.51961e-06
 Reference value :  1.75011e-06
 Reference value :  1.75022e-06
 Reference value :  1.75068e-06
 Reference value :  1.75185e-06
 Reference value :  1.75440e-06
 Reference value :  1.75759e-06
 Reference value :  1.76216e-06
 Reference value :  1.85165e-06
 Reference value :  2.00010e-06
 Reference value :  2.00022e-06
 Reference value :  2.00128e-06
 Reference value :  2.00219e-06
 Reference value :  2.00329e-06
 Reference value :  2.00441e-06
 Reference value :  2.00609e-06
 Reference value :  2.00973e-06
 Reference value :  2.01173e-06
 Reference value :  2.01369e-06
 Reference value :  2.01547e-06
 Reference value :  2.01853e-06
 Reference value :  2.02307e-06
 Reference value :  2.05671e-06
 Reference value :  2.10591e-06
 Reference value :  2.14659e-06
 Reference value :  2.20112e-06
 Reference value :  2.22797e-06
 Reference value :  2.24581e-06
 Reference value :  2.25013e-06
 Reference value :  2.25026e-06
 Reference value :  2.25095e-06
 Reference value :  2.25236e-06
 Reference value :  2.25374e-06
 Reference value :  2.25578e-06
 Reference value :  2.25942e-06
 Reference value :  2.27676e-06
 Reference value :  2.39497e-06
 Reference value :  2.50003e-06
 Reference value :  2.50011e-06
 Reference value :  2.50022e-06
 Reference value :  2.50083e-06
 Reference value :  2.50176e-06
 Reference value :  2.50332e-06
 Reference value :  2.50473e-06
 Reference value :  2.50734e-06
 Reference value :  2.50903e-06
 Reference value :  2.51120e-06
 Reference value :  2.52891e-06
 Reference value :  2.75011e-06
 Reference value :  2.75021e-06
 Reference value :  2.75068e-06
 Reference value :  2.75185e-06
 Reference value :  2.75376e-06
 Reference value :  2.75577e-06
 Reference value :  2.75843e-06
 Reference value :  2.76488e-06
 Reference value :  2.92832e-06
 Reference value :  3.00010e-06
 Reference value :  3.00022e-06
 Reference value :  3.00128e-06
 Reference value :  3.00219e-06
 Reference value :  3.00329e-06
 Reference value :  3.00441e-06
 Reference value :  3.00556e-06
 Reference value :  3.00670e-06
 Reference value :  3.00973e-06
 Reference value :  3.01174e-06
 Reference value :  3.01369e-06
 Reference value :  3.01547e-06
 Reference value :  3.01853e-06
 Reference value :  3.02306e-06
 Reference value :  3.04965e-06
 Reference value :  3.05717e-06
 Reference value :  3.06317e-06
 Reference value :  3.06720e-06
 Reference value :  3.06979e-06
 Reference value :  3.08530e-06
 Reference value :  3.11852e-06
 Reference value :  3.17469e-06
 Reference value :  3.25010e-06
 Reference value :  3.25017e-06
 Reference value :  3.25022e-06
 Reference value :  3.25044e-06
 Reference value :  3.25094e-06
 Reference value :  3.25185e-06
 Reference value :  3.25302e-06
 Reference value :  3.25438e-06
 Reference value :  3.25666e-06
 Reference value :  3.26141e-06
 Reference value :  3.28440e-06
 Reference value :  3.50000e-06
 Reference value :  3.50010e-06
 Reference value :  3.50022e-06
 Reference value :  3.50128e-06
 Reference value :  3.50219e-06
 Reference value :  3.50323e-06
 Reference value :  3.50442e-06
 Reference value :  3.50616e-06
 Reference value :  3.50818e-06
 Reference value :  3.51036e-06
 Reference value :  3.51289e-06
 Reference value :  3.52854e-06
 Reference value :  3.64280e-06
 Reference value :  3.75013e-06
 Reference value :  3.75021e-06
 Reference value :  3.75044e-06
 Reference value :  3.75138e-06
 Reference value :  3.75302e-06
 Reference value :  3.75440e-06
 Reference value :  3.75671e-06
 Reference value :  3.76143e-06
 Reference value :  3.80586e-06
 Reference value :  4.00001e-06
 Reference value :  4.00010e-06
 Reference value :  4.00016e-06
 Reference value :  4.00050e-06
 Reference value :  4.00128e-06
 Reference value :  4.00219e-06
 Reference value :  4.00329e-06
 Reference value :  4.00440e-06
 Reference value :  4.00557e-06
 Reference value :  4.00671e-06
 Reference value :  4.00999e-06
 Reference value :  4.01280e-06
 Reference value :  4.01493e-06
 Reference value :  4.01707e-06
 Reference value :  4.02105e-06
 Reference value :  4.03468e-06
 Reference value :  4.04214e-06
 Reference value :  4.04930e-06
 Reference value :  4.05812e-06
 Reference value :  4.08649e-06
 Reference value :  4.24548e-06
 Reference value :  4.25013e-06
 Reference value :  4.25021e-06
 Reference value :  4.25032e-06
 Reference value :  4.25094e-06
 Reference value :  4.25185e-06
 Reference value :  4.25373e-06
 Reference value :  4.25508e-06
 Reference value :  4.25786e-06
 Reference value :  4.26602e-06
 Reference value :  4.30527e-06
 Reference value :  4.50000e-06
 Reference value :  4.50003e-06
 Reference value :  4.50010e-06
 Reference value :  4.50022e-06
 Reference value :  4.50083e-06
 Reference value :  4.50176e-06
 Reference value :  4.50265e-06
 Reference value :  4.50395e-06
 Reference value :  4.50554e-06
 Reference value :  4.50734e-06
 Reference value :  4.50903e-06
 Reference value :  4.51119e-06
 Reference value :  4.52890e-06
 Reference value :  4.75010e-06
 Reference value :  4.75017e-06
 Reference value :  4.75026e-06
 Reference value :  4.75068e-06
 Reference value :  4.75138e-06
 Reference value :  4.75302e-06
 Reference value :  4.75439e-06
 Reference value :  4.75670e-06
 Reference value :  4.75842e-06
 Reference value :  4.76214e-06
 Reference value :  4.77523e-06
 Reference value :  4.84846e-06
 Reference value :  5.00001e-06
 Reference value :  5.00010e-06
 Reference value :  5.00016e-06
 Reference value :  5.00050e-06
 Reference value :  5.00128e-06
 Reference value :  5.00219e-06
 Reference value :  5.00329e-06
 Reference value :  5.00441e-06
 Reference value :  5.00556e-06
 Reference value :  5.00609e-06
 Reference value :  5.00756e-06
 Reference value :  5.01071e-06
 Reference value :  5.01285e-06
 Reference value :  5.01449e-06
 Reference value :  5.01652e-06
 Reference value :  5.01995e-06
 Reference value :  5.02763e-06
 Reference value :  5.03177e-06
 Reference value :  5.03917e-06
 Reference value :  5.04261e-06
 Reference value :  5.04720e-06
 Reference value :  5.05053e-06
 Reference value :  5.06423e-06
 Reference value :  5.07887e-06
 Reference value :  5.08912e-06
 Reference value :  5.09506e-06
 Reference value :  5.11083e-06
 Reference value :  5.13834e-06
 Reference value :  5.23706e-06
 Reference value :  5.25013e-06
 Reference value :  5.25021e-06
 Reference value :  5.25032e-06
 Reference value :  5.25094e-06
 Reference value :  5.25185e-06
 Reference value :  5.25374e-06
 Reference value :  5.25581e-06
 Reference value :  5.26613e-06
 Reference value :  5.40505e-06
 Reference value :  5.50007e-06
 Reference value :  5.50022e-06
 Reference value :  5.50129e-06
 Reference value :  5.50218e-06
 Reference value :  5.50395e-06
 Reference value :  5.50553e-06
 Reference value :  5.50734e-06
 Reference value :  5.50903e-06
 Reference value :  5.51241e-06
 Reference value :  5.52891e-06
 Reference value :  5.75010e-06
 Reference value :  5.75017e-06
 Reference value :  5.75022e-06
 Reference value :  5.75068e-06
 Reference value :  5.75138e-06
 Reference value :  5.75302e-06
 Reference value :  5.75439e-06
 Reference value :  5.75670e-06
 Reference value :  5.75842e-06
 Reference value :  5.76214e-06
 Reference value :  5.77522e-06
 Reference value :  5.84757e-06
 Reference value :  6.00000e-06
 Reference value :  6.00003e-06
 Reference value :  6.00010e-06
 Reference value :  6.00016e-06
 Reference value :  6.00034e-06
 Reference value :  6.00083e-06
 Reference value :  6.00128e-06
 Reference value :  6.00219e-06
 Reference value :  6.00329e-06
 Reference value :  6.00441e-06
 Reference value :  6.00556e-06
 Reference value :  6.00756e-06
 Reference value :  6.01071e-06
 Reference value :  6.01285e-06
 Reference value :  6.01554e-06
 Reference value :  6.01880e-06
 Reference value :  6.02177e-06
 Reference value :  6.03641e-06
 Reference value :  6.09347e-06
 Reference value :  6.20560e-06
 Reference value :  6.25011e-06
 Reference value :  6.25021e-06
 Reference value :  6.25044e-06
 Reference value :  6.25138e-06
 Reference value :  6.25302e-06
 Reference value :  6.25436e-06
 Reference value :  6.25661e-06
 Reference value :  6.27229e-06
 Reference value :  6.50001e-06
 Reference value :  6.50012e-06
 Reference value :  6.50050e-06
 Reference value :  6.50176e-06
 Reference value :  6.50395e-06
 Reference value :  6.50657e-06
 Reference value :  6.50903e-06
 Reference value :  6.51485e-06
 Reference value :  6.54764e-06
 Reference value :  6.75011e-06
 Reference value :  6.75020e-06
 Reference value :  6.75044e-06
 Reference value :  6.75138e-06
 Reference value :  6.75376e-06
 Reference value :  6.75504e-06
 Reference value :  6.75757e-06
 Reference value :  6.76073e-06
 Reference value :  6.78719e-06
 Reference value :  7.00000e-06
 Reference value :  7.00007e-06
 Reference value :  7.00012e-06
 Reference value :  7.00022e-06
 Reference value :  7.00050e-06
 Reference value :  7.00128e-06
 Reference value :  7.00219e-06
 Reference value :  7.00329e-06
 Reference value :  7.00441e-06
 Reference value :  7.00556e-06
 Reference value :  7.00609e-06
 Reference value :  7.00756e-06
 Reference value :  7.00973e-06
 Reference value :  7.01072e-06
 Reference value :  7.01286e-06
 Reference value :  7.01447e-06
 Reference value :  7.01756e-06
 Reference value :  7.02179e-06
 Reference value :  7.03180e-06
 Reference value :  7.05033e-06
 Reference value :  7.06572e-06
 Reference value :  7.08510e-06
 Reference value :  7.15059e-06
 Reference value :  7.25013e-06
 Reference value :  7.25021e-06
 Reference value :  7.25032e-06
 Reference value :  7.25094e-06
 Reference value :  7.25185e-06
 Reference value :  7.25302e-06
 Reference value :  7.25438e-06
 Reference value :  7.25665e-06
 Reference value :  7.26540e-06
 Reference value :  7.34041e-06
 Reference value :  7.50001e-06
 Reference value :  7.50010e-06
 Reference value :  7.50022e-06
 Reference value :  7.50083e-06
 Reference value :  7.50176e-06
 Reference value :  7.50268e-06
 Reference value :  7.50382e-06
 Reference value :  7.50508e-06
 Reference value :  7.50818e-06
 Reference value :  7.51158e-06
 Reference value :  7.52850e-06
 Reference value :  7.64244e-06
 Reference value :  7.75013e-06
 Reference value :  7.75021e-06
 Reference value :  7.75044e-06
 Reference value :  7.75138e-06
 Reference value :  7.75302e-06
 Reference value :  7.75439e-06
 Reference value :  7.75576e-06
 Reference value :  7.75923e-06
 Reference value :  7.78383e-06
 Reference value :  7.90499e-06
 Reference value :  8.00003e-06
 Reference value :  8.00011e-06
 Reference value :  8.00022e-06
 Reference value :  8.00083e-06
 Reference value :  8.00128e-06
 Reference value :  8.00219e-06
 Reference value :  8.00329e-06
 Reference value :  8.00440e-06
 Reference value :  8.00557e-06
 Reference value :  8.00671e-06
 Reference value :  8.00928e-06
 Reference value :  8.01794e-06
 Reference value :  8.14929e-06
 Reference value :  8.25017e-06
 Reference value :  8.25026e-06
 Reference value :  8.25070e-06
 Reference value :  8.25139e-06
 Reference value :  8.25303e-06
 Reference value :  8.25475e-06
 Reference value :  8.25789e-06
 Reference value :  8.27124e-06
 Reference value :  8.38402e-06
 Reference value :  8.50000e-06
 Reference value :  8.50000e-06
 Reference value :  8.50001e-06
 Reference value :  8.50008e-06
 Reference value :  8.50012e-06
 Reference value :  8.50027e-06
 Reference value :  8.50080e-06
 Reference value :  8.50170e-06
 Reference value :  8.50268e-06
 Reference value :  8.50475e-06
 Reference value :  8.50608e-06
 Reference value :  8.50762e-06
 Reference value :  8.52084e-06
 Reference value :  8.52693e-06
 Reference value :  8.53137e-06
 Reference value :  8.53875e-06
 Reference value :  8.54709e-06
 Reference value :  8.56977e-06
 Reference value :  8.62557e-06
 Reference value :  8.75010e-06
 Reference value :  8.75013e-06
 Reference value :  8.75021e-06
 Reference value :  8.75044e-06
 Reference value :  8.75138e-06
 Reference value :  8.75302e-06
 Reference value :  8.75438e-06
 Reference value :  8.75761e-06
 Reference value :  8.77244e-06
 Reference value :  9.00000e-06
 Reference value :  9.00010e-06
 Reference value :  9.00022e-06
 Reference value :  9.00128e-06
 Reference value :  9.00219e-06
 Reference value :  9.00323e-06
 Reference value :  9.00442e-06
 Reference value :  9.00721e-06
 Reference value :  9.01006e-06
 Reference value :  9.01271e-06
 Reference value :  9.01562e-06
 Reference value :  9.01912e-06
 Reference value :  9.03193e-06
 Reference value :  9.08749e-06
 Reference value :  9.25013e-06
 Reference value :  9.25022e-06
 Reference value :  9.25044e-06
 Reference value :  9.25138e-06
 Reference value :  9.25302e-06
 Reference value :  9.25440e-06
 Reference value :  9.25671e-06
 Reference value :  9.26143e-06
 Reference value :  9.28389e-06
 Reference value :  9.50000e-06
 Reference value :  9.50007e-06
 Reference value :  9.50012e-06
 Reference value :  9.50034e-06
 Reference value :  9.50128e-06
 Reference value :  9.50329e-06
 Reference value :  9.50498e-06
 Reference value :  9.50609e-06
 Reference value :  9.50996e-06
 Reference value :  9.51277e-06
 Reference value :  9.51493e-06
 Reference value :  9.51707e-06
 Reference value :  9.52107e-06
 Reference value :  9.53052e-06
 Reference value :  9.54429e-06
 Reference value :  9.55162e-06
 Reference value :  9.55797e-06
 Reference value :  9.56623e-06
 Reference value :  9.60809e-06
 Reference value :  9.75013e-06
 Reference value :  9.75032e-06
 Reference value :  9.75094e-06
 Reference value :  9.75138e-06
 Reference value :  9.75236e-06
 Reference value :  9.75373e-06
 Reference value :  9.75509e-06
 Reference value :  9.75675e-06
 Reference value :  9.76184e-06
 Reference value :  9.77289e-06
 Reference value :  9.80458e-06
 Reference value :  1.00000e-05
 Reference value :  1.00001e-05
 Reference value :  1.00001e-05
 Reference value :  1.00002e-05
 Reference value :  1.00008e-05
 Reference value :  1.00013e-05
 Reference value :  1.00022e-05
 Reference value :  1.00039e-05
 Reference value :  1.00055e-05
 Reference value :  1.00073e-05
 Reference value :  1.00090e-05
 Reference value :  1.00112e-05
 Reference value :  1.00196e-05
 Reference value :  1.00848e-05
 Reference value :  1.02501e-05
 Reference value :  1.02502e-05
 Reference value :  1.02503e-05
 Reference value :  1.02509e-05
 Reference value :  1.02518e-05
 Reference value :  1.02530e-05
 Reference value :  1.02544e-05
 Reference value :  1.02567e-05
 Reference value :  1.02584e-05
 Reference value :  1.02621e-05
 Reference value :  1.02875e-05
 Reference value :  1.05000e-05
 Reference value :  1.05001e-05
 Reference value :  1.05002e-05
 Reference value :  1.05005e-05
 Reference value :  1.05013e-05
 Reference value :  1.05022e-05
 Reference value :  1.05033e-05
 Reference value :  1.05044e-05
 Reference value :  1.05056e-05
 Reference value :  1.05061e-05
 Reference value :  1.05076e-05
 Reference value :  1.05097e-05
 Reference value :  1.05107e-05
 Reference value :  1.05117e-05
 Reference value :  1.05128e-05
 Reference value :  1.05137e-05
 Reference value :  1.05155e-05
 Reference value :  1.05175e-05
 Reference value :  1.05185e-05
 Reference value :  1.05214e-05
 Reference value :  1.05323e-05
 Reference value :  1.05846e-05
 Reference value :  1.06331e-05
 Reference value :  1.06496e-05
 Reference value :  1.06636e-05
 Reference value :  1.06763e-05
 Reference value :  1.07072e-05
 Reference value :  1.07216e-05
 Reference value :  1.07285e-05
 Reference value :  1.07419e-05
 Reference value :  1.07478e-05
 Reference value :  1.07501e-05
 Reference value :  1.07502e-05
 Reference value :  1.07503e-05
 Reference value :  1.07507e-05
 Reference value :  1.07514e-05
 Reference value :  1.07524e-05
 Reference value :  1.07537e-05
 Reference value :  1.07551e-05
 Reference value :  1.07568e-05
 Reference value :  1.07660e-05
 Reference value :  1.08080e-05
 Reference value :  1.10000e-05
 Reference value :  1.10001e-05
 Reference value :  1.10002e-05
 Reference value :  1.10005e-05
 Reference value :  1.10013e-05
 Reference value :  1.10022e-05
 Reference value :  1.10033e-05
 Reference value :  1.10047e-05
 Reference value :  1.10066e-05
 Reference value :  1.10082e-05
 Reference value :  1.10100e-05
 Reference value :  1.10195e-05
 Reference value :  1.11600e-05
 Reference value :  1.12501e-05
 Reference value :  1.12502e-05
 Reference value :  1.12503e-05
 Reference value :  1.12504e-05
 Reference value :  1.12509e-05
 Reference value :  1.12514e-05
 Reference value :  1.12524e-05
 Reference value :  1.12538e-05
 Reference value :  1.12544e-05
 Reference value :  1.12558e-05
 Reference value :  1.12576e-05
 Reference value :  1.12584e-05
 Reference value :  1.12607e-05
 Reference value :  1.12683e-05
 Reference value :  1.13482e-05
 Reference value :  1.15000e-05
 Reference value :  1.15001e-05
 Reference value :  1.15001e-05
 Reference value :  1.15002e-05
 Reference value :  1.15008e-05
 Reference value :  1.15018e-05
 Reference value :  1.15022e-05
 Reference value :  1.15033e-05
 Reference value :  1.15044e-05
 Reference value :  1.15056e-05
 Reference value :  1.15067e-05
 Reference value :  1.15084e-05
 Reference value :  1.15107e-05
 Reference value :  1.15128e-05
 Reference value :  1.15145e-05
 Reference value :  1.15176e-05
 Reference value :  1.15213e-05
 Reference value :  1.15307e-05
 Reference value :  1.15541e-05
 Reference value :  1.15661e-05
 Reference value :  1.15788e-05
 Reference value :  1.16034e-05
 Reference value :  1.16833e-05
 Reference value :  1.17501e-05
 Reference value :  1.17501e-05
 Reference value :  1.17502e-05
 Reference value :  1.17503e-05
 Reference value :  1.17504e-05
 Reference value :  1.17509e-05
 Reference value :  1.17514e-05
 Reference value :  1.17524e-05
 Reference value :  1.17538e-05
 Reference value :  1.17544e-05
 Reference value :  1.17557e-05
 Reference value :  1.17576e-05
 Reference value :  1.17654e-05
 Reference value :  1.18049e-05
 Reference value :  1.20000e-05
 Reference value :  1.20001e-05
 Reference value :  1.20001e-05
 Reference value :  1.20003e-05
 Reference value :  1.20013e-05
 Reference value :  1.20022e-05
 Reference value :  1.20032e-05
 Reference value :  1.20044e-05
 Reference value :  1.20062e-05
 Reference value :  1.20082e-05
 Reference value :  1.20093e-05
 Reference value :  1.20116e-05
 Reference value :  1.20288e-05
 Reference value :  1.22501e-05
 Reference value :  1.22502e-05
 Reference value :  1.22502e-05
 Reference value :  1.22507e-05
 Reference value :  1.22514e-05
 Reference value :  1.22530e-05
 Reference value :  1.22544e-05
 Reference value :  1.22567e-05
 Reference value :  1.22655e-05
 Reference value :  1.23398e-05
 Reference value :  1.25000e-05
 Reference value :  1.25001e-05
 Reference value :  1.25003e-05
 Reference value :  1.25013e-05
 Reference value :  1.25022e-05
 Reference value :  1.25033e-05
 Reference value :  1.25044e-05
 Reference value :  1.25056e-05
 Reference value :  1.25061e-05
 Reference value :  1.25084e-05
 Reference value :  1.25114e-05
 Reference value :  1.25128e-05
 Reference value :  1.25160e-05
 Reference value :  1.25171e-05
 Reference value :  1.25194e-05
 Reference value :  1.25228e-05
 Reference value :  1.25294e-05
 Reference value :  1.25343e-05
 Reference value :  1.25395e-05
 Reference value :  1.25428e-05
 Reference value :  1.25503e-05
 Reference value :  1.25592e-05
 Reference value :  1.25770e-05
 Reference value :  1.26466e-05
 Reference value :  1.27501e-05
 Reference value :  1.27502e-05
 Reference value :  1.27502e-05
 Reference value :  1.27503e-05
 Reference value :  1.27507e-05
 Reference value :  1.27514e-05
 Reference value :  1.27524e-05
 Reference value :  1.27537e-05
 Reference value :  1.27551e-05
 Reference value :  1.27567e-05
 Reference value :  1.27594e-05
 Reference value :  1.27729e-05
 Reference value :  1.28046e-05
 Reference value :  1.30000e-05
 Reference value :  1.30000e-05
 Reference value :  1.30001e-05
 Reference value :  1.30001e-05
 Reference value :  1.30002e-05
 Reference value :  1.30008e-05
 Reference value :  1.30018e-05
 Reference value :  1.30026e-05
 Reference value :  1.30047e-05
 Reference value :  1.30073e-05
 Reference value :  1.30090e-05
 Reference value :  1.30124e-05
 Reference value :  1.30476e-05
 Reference value :  1.32501e-05
 Reference value :  1.32502e-05
 Reference value :  1.32503e-05
 Reference value :  1.32509e-05
 Reference value :  1.32518e-05
 Reference value :  1.32538e-05
 Reference value :  1.32550e-05
 Reference value :  1.32576e-05
 Reference value :  1.32593e-05
 Reference value :  1.32648e-05
 Reference value :  1.33078e-05
 Reference value :  1.35000e-05
 Reference value :  1.35001e-05
 Reference value :  1.35002e-05
 Reference value :  1.35005e-05
 Reference value :  1.35013e-05
 Reference value :  1.35022e-05
 Reference value :  1.35033e-05
 Reference value :  1.35044e-05
 Reference value :  1.35056e-05
 Reference value :  1.35067e-05
 Reference value :  1.35097e-05
 Reference value :  1.35117e-05
 Reference value :  1.35137e-05
 Reference value :  1.35156e-05
 Reference value :  1.35176e-05
 Reference value :  1.35239e-05
 Reference value :  1.35322e-05
 Reference value :  1.35399e-05
 Reference value :  1.35458e-05
 Reference value :  1.35573e-05
 Reference value :  1.35847e-05
 Reference value :  1.35938e-05
 Reference value :  1.36067e-05
 Reference value :  1.36377e-05
 Reference value :  1.36790e-05
 Reference value :  1.37501e-05
 Reference value :  1.37502e-05
 Reference value :  1.37503e-05
 Reference value :  1.37504e-05
 Reference value :  1.37509e-05
 Reference value :  1.37514e-05
 Reference value :  1.37524e-05
 Reference value :  1.37537e-05
 Reference value :  1.37551e-05
 Reference value :  1.37568e-05
 Reference value :  1.37619e-05
 Reference value :  1.37847e-05
 Reference value :  1.39023e-05
 Reference value :  1.40000e-05
 Reference value :  1.40001e-05
 Reference value :  1.40001e-05
 Reference value :  1.40003e-05
 Reference value :  1.40013e-05
 Reference value :  1.40022e-05
 Reference value :  1.40039e-05
 Reference value :  1.40055e-05
 Reference value :  1.40073e-05
 Reference value :  1.40090e-05
 Reference value :  1.40124e-05
 Reference value :  1.40476e-05
 Reference value :  1.42501e-05
 Reference value :  1.42502e-05
 Reference value :  1.42503e-05
 Reference value :  1.42507e-05
 Reference value :  1.42514e-05
 Reference value :  1.42530e-05
 Reference value :  1.42544e-05
 Reference value :  1.42567e-05
 Reference value :  1.42584e-05
 Reference value :  1.42621e-05
 Reference value :  1.42873e-05
 Reference value :  1.44234e-05
 Reference value :  1.45001e-05
 Reference value :  1.45001e-05
 Reference value :  1.45003e-05
 Reference value :  1.45013e-05
 Reference value :  1.45022e-05
 Reference value :  1.45033e-05
 Reference value :  1.45044e-05
 Reference value :  1.45056e-05
 Reference value :  1.45067e-05
 Reference value :  1.45097e-05
 Reference value :  1.45107e-05
 Reference value :  1.45129e-05
 Reference value :  1.45145e-05
 Reference value :  1.45176e-05
 Reference value :  1.45220e-05
 Reference value :  1.45299e-05
 Reference value :  1.45463e-05
 Reference value :  1.45699e-05
 Reference value :  1.46000e-05
 Reference value :  1.47275e-05
 Reference value :  1.47501e-05
 Reference value :  1.47502e-05
 Reference value :  1.47503e-05
 Reference value :  1.47507e-05
 Reference value :  1.47514e-05
 Reference value :  1.47524e-05
 Reference value :  1.47537e-05
 Reference value :  1.47551e-05
 Reference value :  1.47568e-05
 Reference value :  1.47729e-05
 Reference value :  1.48280e-05
 Reference value :  1.48841e-05
 Reference value :  1.50000e-05
 Reference value :  1.50001e-05
 Reference value :  1.50002e-05
 Reference value :  1.50005e-05
 Reference value :  1.50013e-05
 Reference value :  1.50022e-05
 Reference value :  1.50039e-05
 Reference value :  1.50055e-05
 Reference value :  1.50073e-05
 Reference value :  1.50090e-05
 Reference value :  1.50112e-05
 Reference value :  1.50289e-05
 Reference value :  1.52501e-05
 Reference value :  1.52502e-05
 Reference value :  1.52503e-05
 Reference value :  1.52507e-05
 Reference value :  1.52514e-05
 Reference value :  1.52530e-05
 Reference value :  1.52544e-05
 Reference value :  1.52567e-05
 Reference value :  1.52584e-05
 Reference value :  1.52621e-05
 Reference value :  1.52872e-05
 Reference value :  1.55000e-05
 Reference value :  1.55013e-05
 Reference value :  1.55051e-05
 Reference value :  1.55074e-05
 Reference value :  1.55104e-05
 Reference value :  1.55124e-05
 Reference value :  1.55141e-05
 Reference value :  1.55158e-05
 Reference value :  1.55188e-05
 Reference value :  1.55255e-05
 Reference value :  1.55337e-05
 Reference value :  1.55412e-05
 Reference value :  1.55569e-05
 Reference value :  1.56024e-05
 Reference value :  1.57501e-05
 Reference value :  1.57502e-05
 Reference value :  1.57504e-05
 Reference value :  1.57514e-05
 Reference value :  1.57530e-05
 Reference value :  1.57544e-05
 Reference value :  1.57575e-05
 Reference value :  1.58041e-05
 Reference value :  1.60000e-05
 Reference value :  1.60001e-05
 Reference value :  1.60005e-05
 Reference value :  1.60018e-05
 Reference value :  1.60032e-05
 Reference value :  1.60051e-05
 Reference value :  1.60082e-05
 Reference value :  1.60116e-05
 Reference value :  1.60447e-05
 Reference value :  1.62501e-05
 Reference value :  1.62502e-05
 Reference value :  1.62503e-05
 Reference value :  1.62507e-05
 Reference value :  1.62514e-05
 Reference value :  1.62530e-05
 Reference value :  1.62544e-05
 Reference value :  1.62567e-05
 Reference value :  1.62655e-05
 Reference value :  1.63048e-05
 Reference value :  1.65000e-05
 Reference value :  1.65001e-05
 Reference value :  1.65002e-05
 Reference value :  1.65005e-05
 Reference value :  1.65013e-05
 Reference value :  1.65022e-05
 Reference value :  1.65033e-05
 Reference value :  1.65044e-05
 Reference value :  1.65056e-05
 Reference value :  1.65067e-05
 Reference value :  1.65084e-05
 Reference value :  1.65103e-05
 Reference value :  1.65179e-05
 Reference value :  1.65792e-05
 Reference value :  1.67501e-05
 Reference value :  1.67502e-05
 Reference value :  1.67503e-05
 Reference value :  1.67507e-05
 Reference value :  1.67514e-05
 Reference value :  1.67530e-05
 Reference value :  1.67548e-05
 Reference value :  1.67579e-05
 Reference value :  1.67712e-05
 Reference value :  1.68840e-05
 Reference value :  1.70000e-05
 Reference value :  1.70000e-05
 Reference value :  1.70000e-05
 Reference value :  1.70001e-05
 Reference value :  1.70001e-05
 Reference value :  1.70004e-05
 Reference value :  1.70017e-05
 Reference value :  1.70033e-05
 Reference value :  1.70047e-05
 Reference value :  1.70054e-05
 Reference value :  1.70068e-05
 Reference value :  1.70142e-05
 Reference value :  1.70269e-05
 Reference value :  1.70314e-05
 Reference value :  1.70387e-05
 Reference value :  1.70440e-05
 Reference value :  1.70509e-05
 Reference value :  1.70704e-05
 Reference value :  1.71269e-05
 Reference value :  1.72501e-05
 Reference value :  1.72502e-05
 Reference value :  1.72503e-05
 Reference value :  1.72509e-05
 Reference value :  1.72518e-05
 Reference value :  1.72530e-05
 Reference value :  1.72544e-05
 Reference value :  1.72567e-05
 Reference value :  1.72615e-05
 Reference value :  1.72839e-05
 Reference value :  1.74043e-05
 Reference value :  1.75000e-05
 Reference value :  1.75001e-05
 Reference value :  1.75002e-05
 Reference value :  1.75003e-05
 Reference value :  1.75008e-05
 Reference value :  1.75013e-05
 Reference value :  1.75022e-05
 Reference value :  1.75032e-05
 Reference value :  1.75044e-05
 Reference value :  1.75072e-05
 Reference value :  1.75101e-05
 Reference value :  1.75127e-05
 Reference value :  1.75156e-05
 Reference value :  1.75191e-05
 Reference value :  1.75319e-05
 Reference value :  1.75875e-05
 Reference value :  1.77501e-05
 Reference value :  1.77502e-05
 Reference value :  1.77504e-05
 Reference value :  1.77514e-05
 Reference value :  1.77530e-05
 Reference value :  1.77544e-05
 Reference value :  1.77567e-05
 Reference value :  1.77655e-05
 Reference value :  1.79047e-05
 Reference value :  1.80018e-05
 Reference value :  1.80072e-05
 Reference value :  1.80127e-05
 Reference value :  1.80153e-05
 Reference value :  1.80177e-05
 Reference value :  1.80226e-05
 Reference value :  1.80347e-05
 Reference value :  1.80446e-05
 Reference value :  1.80520e-05
 Reference value :  1.80621e-05
 Reference value :  1.80789e-05
 Reference value :  1.81392e-05
 Reference value :  1.82501e-05
 Reference value :  1.82502e-05
 Reference value :  1.82507e-05
 Reference value :  1.82514e-05
 Reference value :  1.82524e-05
 Reference value :  1.82536e-05
 Reference value :  1.82549e-05
 Reference value :  1.82573e-05
 Reference value :  1.82642e-05
 Reference value :  1.83007e-05
 Reference value :  1.85000e-05
 Reference value :  1.85001e-05
 Reference value :  1.85001e-05
 Reference value :  1.85002e-05
 Reference value :  1.85005e-05
 Reference value :  1.85013e-05
 Reference value :  1.85022e-05
 Reference value :  1.85039e-05
 Reference value :  1.85055e-05
 Reference value :  1.85073e-05
 Reference value :  1.85090e-05
 Reference value :  1.85112e-05
 Reference value :  1.85196e-05
 Reference value :  1.85850e-05
 Reference value :  1.87501e-05
 Reference value :  1.87502e-05
 Reference value :  1.87503e-05
 Reference value :  1.87509e-05
 Reference value :  1.87518e-05
 Reference value :  1.87538e-05
 Reference value :  1.87550e-05
 Reference value :  1.87567e-05
 Reference value :  1.87584e-05
 Reference value :  1.87621e-05
 Reference value :  1.87874e-05
 Reference value :  1.90000e-05
 Reference value :  1.90001e-05
 Reference value :  1.90001e-05
 Reference value :  1.90003e-05
 Reference value :  1.90013e-05
 Reference value :  1.90022e-05
 Reference value :  1.90033e-05
 Reference value :  1.90044e-05
 Reference value :  1.90056e-05
 Reference value :  1.90067e-05
 Reference value :  1.90097e-05
 Reference value :  1.90107e-05
 Reference value :  1.90128e-05
 Reference value :  1.90145e-05
 Reference value :  1.90165e-05
 Reference value :  1.90185e-05
 Reference value :  1.90214e-05
 Reference value :  1.90414e-05
 Reference value :  1.91080e-05
 Reference value :  1.91491e-05
 Reference value :  1.91921e-05
 Reference value :  1.92264e-05
 Reference value :  1.92359e-05
 Reference value :  1.92501e-05
 Reference value :  1.92502e-05
 Reference value :  1.92509e-05
 Reference value :  1.92524e-05
 Reference value :  1.92544e-05
 Reference value :  1.92578e-05
 Reference value :  1.92891e-05
 Reference value :  1.95017e-05
 Reference value :  1.95069e-05
 Reference value :  1.95101e-05
 Reference value :  1.95174e-05
 Reference value :  1.96095e-05
 Reference value :  1.97502e-05
 Reference value :  1.97504e-05
 Reference value :  1.97519e-05
 Reference value :  1.97543e-05
 Reference value :  1.97574e-05
 Reference value :  1.97606e-05
 Reference value :  1.97845e-05
 Reference value :  2.00000e-05
 Reference value :  2.00001e-05
 Reference value :  2.00003e-05
 Reference value :  2.00018e-05
 Reference value :  2.00033e-05
 Reference value :  2.00050e-05
 Reference value :  2.00061e-05
 Reference value :  2.00097e-05
 Reference value :  2.00117e-05
 Reference value :  2.00137e-05
 Reference value :  2.00164e-05
 Reference value :  2.00211e-05
 Reference value :  2.00432e-05
 Reference value :  2.00507e-05
 Reference value :  2.00627e-05
 Reference value :  2.00711e-05
 Reference value :  2.00859e-05
 Reference value :  2.01135e-05
 Reference value :  2.01805e-05
 Reference value :  2.02501e-05
 Reference value :  2.02502e-05
 Reference value :  2.02507e-05
 Reference value :  2.02518e-05
 Reference value :  2.02538e-05
 Reference value :  2.02550e-05
 Reference value :  2.02576e-05
 Reference value :  2.02725e-05
 Reference value :  2.04069e-05
 Reference value :  2.05018e-05
 Reference value :  2.05053e-05
 Reference value :  2.05071e-05
 Reference value :  2.05103e-05
 Reference value :  2.05150e-05
 Reference value :  2.05280e-05
 Reference value :  2.05833e-05
 Reference value :  2.07501e-05
 Reference value :  2.07502e-05
 Reference value :  2.07502e-05
 Reference value :  2.07504e-05
 Reference value :  2.07514e-05
 Reference value :  2.07530e-05
 Reference value :  2.07542e-05
 Reference value :  2.07555e-05
 Reference value :  2.07573e-05
 Reference value :  2.07608e-05
 Reference value :  2.07797e-05
 Reference value :  2.08866e-05
 Reference value :  2.10000e-05
 Reference value :  2.10001e-05
 Reference value :  2.10002e-05
 Reference value :  2.10005e-05
 Reference value :  2.10013e-05
 Reference value :  2.10022e-05
 Reference value :  2.10033e-05
 Reference value :  2.10044e-05
 Reference value :  2.10056e-05
 Reference value :  2.10067e-05
 Reference value :  2.10100e-05
 Reference value :  2.10128e-05
 Reference value :  2.10149e-05
 Reference value :  2.10171e-05
 Reference value :  2.10211e-05
 Reference value :  2.10344e-05
 Reference value :  2.10433e-05
 Reference value :  2.10563e-05
 Reference value :  2.10720e-05
 Reference value :  2.11534e-05
 Reference value :  2.12501e-05
 Reference value :  2.12502e-05
 Reference value :  2.12507e-05
 Reference value :  2.12514e-05
 Reference value :  2.12524e-05
 Reference value :  2.12537e-05
 Reference value :  2.12551e-05
 Reference value :  2.12567e-05
 Reference value :  2.12618e-05
 Reference value :  2.12846e-05
 Reference value :  2.15000e-05
 Reference value :  2.15001e-05
 Reference value :  2.15002e-05
 Reference value :  2.15005e-05
 Reference value :  2.15013e-05
 Reference value :  2.15022e-05
 Reference value :  2.15039e-05
 Reference value :  2.15055e-05
 Reference value :  2.15073e-05
 Reference value :  2.15090e-05
 Reference value :  2.15112e-05
 Reference value :  2.15289e-05
 Reference value :  2.16598e-05
 Reference value :  2.17501e-05
 Reference value :  2.17502e-05
 Reference value :  2.17503e-05
 Reference value :  2.17509e-05
 Reference value :  2.17518e-05
 Reference value :  2.17538e-05
 Reference value :  2.17550e-05
 Reference value :  2.17567e-05
 Reference value :  2.17584e-05
 Reference value :  2.17648e-05
 Reference value :  2.18484e-05
 Reference value :  2.20012e-05
 Reference value :  2.20050e-05
 Reference value :  2.20072e-05
 Reference value :  2.20102e-05
 Reference value :  2.20122e-05
 Reference value :  2.20141e-05
 Reference value :  2.20158e-05
 Reference value :  2.20178e-05
 Reference value :  2.20200e-05
 Reference value :  2.20234e-05
 Reference value :  2.20311e-05
 Reference value :  2.20383e-05
 Reference value :  2.20411e-05
 Reference value :  2.20470e-05
 Reference value :  2.20596e-05
 Reference value :  2.21007e-05
 Reference value :  2.21224e-05
 Reference value :  2.21492e-05
 Reference value :  2.21737e-05
 Reference value :  2.22501e-05
 Reference value :  2.22502e-05
 Reference value :  2.22503e-05
 Reference value :  2.22507e-05
 Reference value :  2.22514e-05
 Reference value :  2.22524e-05
 Reference value :  2.22537e-05
 Reference value :  2.22557e-05
 Reference value :  2.22578e-05
 Reference value :  2.22657e-05
 Reference value :  2.23034e-05
 Reference value :  2.23934e-05
 Reference value :  2.25000e-05
 Reference value :  2.25001e-05
 Reference value :  2.25001e-05
 Reference value :  2.25002e-05
 Reference value :  2.25008e-05
 Reference value :  2.25018e-05
 Reference value :  2.25026e-05
 Reference value :  2.25040e-05
 Reference value :  2.25056e-05
 Reference value :  2.25075e-05
 Reference value :  2.25092e-05
 Reference value :  2.25112e-05
 Reference value :  2.25192e-05
 Reference value :  2.25785e-05
 Reference value :  2.27501e-05
 Reference value :  2.27501e-05
 Reference value :  2.27502e-05
 Reference value :  2.27503e-05
 Reference value :  2.27507e-05
 Reference value :  2.27514e-05
 Reference value :  2.27524e-05
 Reference value :  2.27530e-05
 Reference value :  2.27538e-05
 Reference value :  2.27544e-05
 Reference value :  2.27558e-05
 Reference value :  2.27576e-05
 Reference value :  2.27593e-05
 Reference value :  2.27648e-05
 Reference value :  2.27875e-05
 Reference value :  2.30000e-05
 Reference value :  2.30012e-05
 Reference value :  2.30037e-05
 Reference value :  2.30050e-05
 Reference value :  2.30071e-05
 Reference value :  2.30102e-05
 Reference value :  2.30122e-05
 Reference value :  2.30133e-05
 Reference value :  2.30141e-05
 Reference value :  2.30160e-05
 Reference value :  2.30180e-05
 Reference value :  2.30202e-05
 Reference value :  2.30237e-05
 Reference value :  2.30288e-05
 Reference value :  2.30367e-05
 Reference value :  2.30487e-05
 Reference value :  2.30620e-05
 Reference value :  2.30753e-05
 Reference value :  2.31177e-05
 Reference value :  2.32321e-05
 Reference value :  2.32501e-05
 Reference value :  2.32502e-05
 Reference value :  2.32503e-05
 Reference value :  2.32507e-05
 Reference value :  2.32514e-05
 Reference value :  2.32524e-05
 Reference value :  2.32538e-05
 Reference value :  2.32550e-05
 Reference value :  2.32566e-05
 Reference value :  2.32591e-05
 Reference value :  2.32722e-05
 Reference value :  2.33385e-05
 Reference value :  2.34597e-05
 Reference value :  2.35000e-05
 Reference value :  2.35001e-05
 Reference value :  2.35002e-05
 Reference value :  2.35005e-05
 Reference value :  2.35013e-05
 Reference value :  2.35022e-05
 Reference value :  2.35040e-05
 Reference value :  2.35056e-05
 Reference value :  2.35075e-05
 Reference value :  2.35092e-05
 Reference value :  2.35112e-05
 Reference value :  2.35278e-05
 Reference value :  2.35787e-05
 Reference value :  2.36187e-05
 Reference value :  2.37501e-05
 Reference value :  2.37502e-05
 Reference value :  2.37502e-05
 Reference value :  2.37507e-05
 Reference value :  2.37514e-05
 Reference value :  2.37524e-05
 Reference value :  2.37538e-05
 Reference value :  2.37558e-05
 Reference value :  2.37576e-05
 Reference value :  2.37607e-05
 Reference value :  2.37874e-05
 Reference value :  2.40000e-05
 Reference value :  2.40001e-05
 Reference value :  2.40002e-05
 Reference value :  2.40013e-05
 Reference value :  2.40022e-05
 Reference value :  2.40039e-05
 Reference value :  2.40050e-05
 Reference value :  2.40061e-05
 Reference value :  2.40084e-05
 Reference value :  2.40107e-05
 Reference value :  2.40136e-05
 Reference value :  2.40175e-05
 Reference value :  2.40212e-05
 Reference value :  2.40257e-05
 Reference value :  2.40484e-05
 Reference value :  2.42501e-05
 Reference value :  2.42502e-05
 Reference value :  2.42509e-05
 Reference value :  2.42524e-05
 Reference value :  2.42544e-05
 Reference value :  2.42592e-05
 Reference value :  2.43402e-05
 Reference value :  2.45001e-05
 Reference value :  2.45002e-05
 Reference value :  2.45008e-05
 Reference value :  2.45022e-05
 Reference value :  2.45038e-05
 Reference value :  2.45062e-05
 Reference value :  2.45093e-05
 Reference value :  2.45155e-05
 Reference value :  2.47501e-05
 Reference value :  2.47502e-05
 Reference value :  2.47507e-05
 Reference value :  2.47518e-05
 Reference value :  2.47538e-05
 Reference value :  2.47558e-05
 Reference value :  2.47614e-05
 Reference value :  2.48396e-05
 Reference value :  2.50001e-05
 Reference value :  2.50002e-05
 Reference value :  2.50013e-05
 Reference value :  2.50022e-05
 Reference value :  2.50033e-05
 Reference value :  2.50044e-05
 Reference value :  2.50056e-05
 Reference value :  2.50067e-05
 Reference value :  2.50084e-05
 Reference value :  2.50103e-05
 Reference value :  2.50114e-05
 Reference value :  2.50267e-05
 Reference value :  2.51493e-05
 Reference value :  2.52501e-05
 Reference value :  2.52502e-05
 Reference value :  2.52504e-05
 Reference value :  2.52510e-05
 Reference value :  2.52514e-05
 Reference value :  2.52524e-05
 Reference value :  2.52539e-05
 Reference value :  2.52566e-05
 Reference value :  2.52712e-05
 Reference value :  2.54968e-05
 Reference value :  2.55000e-05
 Reference value :  2.55000e-05
 Reference value :  2.55000e-05
 Reference value :  2.55001e-05
 Reference value :  2.55001e-05
 Reference value :  2.55004e-05
 Reference value :  2.55012e-05
 Reference value :  2.55022e-05
 Reference value :  2.55047e-05
 Reference value :  2.55068e-05
 Reference value :  2.55208e-05
 Reference value :  2.55269e-05
 Reference value :  2.55356e-05
 Reference value :  2.55440e-05
 Reference value :  2.55821e-05
 Reference value :  2.57501e-05
 Reference value :  2.57502e-05
 Reference value :  2.57507e-05
 Reference value :  2.57518e-05
 Reference value :  2.57538e-05
 Reference value :  2.57557e-05
 Reference value :  2.57654e-05
 Reference value :  2.59051e-05
 Reference value :  2.60001e-05
 Reference value :  2.60002e-05
 Reference value :  2.60008e-05
 Reference value :  2.60018e-05
 Reference value :  2.60032e-05
 Reference value :  2.60044e-05
 Reference value :  2.60072e-05
 Reference value :  2.60101e-05
 Reference value :  2.60127e-05
 Reference value :  2.60156e-05
 Reference value :  2.60212e-05
 Reference value :  2.60875e-05
 Reference value :  2.62501e-05
 Reference value :  2.62503e-05
 Reference value :  2.62507e-05
 Reference value :  2.62518e-05
 Reference value :  2.62538e-05
 Reference value :  2.62558e-05
 Reference value :  2.62614e-05
 Reference value :  2.63395e-05
 Reference value :  2.65018e-05
 Reference value :  2.65072e-05
 Reference value :  2.65112e-05
 Reference value :  2.65141e-05
 Reference value :  2.65177e-05
 Reference value :  2.65247e-05
 Reference value :  2.65341e-05
 Reference value :  2.65439e-05
 Reference value :  2.65514e-05
 Reference value :  2.65569e-05
 Reference value :  2.65698e-05
 Reference value :  2.65868e-05
 Reference value :  2.66996e-05
 Reference value :  2.67501e-05
 Reference value :  2.67502e-05
 Reference value :  2.67503e-05
 Reference value :  2.67507e-05
 Reference value :  2.67514e-05
 Reference value :  2.67524e-05
 Reference value :  2.67536e-05
 Reference value :  2.67549e-05
 Reference value :  2.67573e-05
 Reference value :  2.67708e-05
 Reference value :  2.68935e-05
 Reference value :  2.70001e-05
 Reference value :  2.70001e-05
 Reference value :  2.70003e-05
 Reference value :  2.70013e-05
 Reference value :  2.70022e-05
 Reference value :  2.70039e-05
 Reference value :  2.70055e-05
 Reference value :  2.70066e-05
 Reference value :  2.70073e-05
 Reference value :  2.70090e-05
 Reference value :  2.70112e-05
 Reference value :  2.70476e-05
 Reference value :  2.72502e-05
 Reference value :  2.72503e-05
 Reference value :  2.72509e-05
 Reference value :  2.72518e-05
 Reference value :  2.72530e-05
 Reference value :  2.72544e-05
 Reference value :  2.72567e-05
 Reference value :  2.72584e-05
 Reference value :  2.72621e-05
 Reference value :  2.72874e-05
 Reference value :  2.75000e-05
 Reference value :  2.75001e-05
 Reference value :  2.75002e-05
 Reference value :  2.75005e-05
 Reference value :  2.75013e-05
 Reference value :  2.75022e-05
 Reference value :  2.75033e-05
 Reference value :  2.75044e-05
 Reference value :  2.75056e-05
 Reference value :  2.75067e-05
 Reference value :  2.75084e-05
 Reference value :  2.75107e-05
 Reference value :  2.75128e-05
 Reference value :  2.75145e-05
 Reference value :  2.75165e-05
 Reference value :  2.75185e-05
 Reference value :  2.75231e-05
 Reference value :  2.75414e-05
 Reference value :  2.75847e-05
 Reference value :  2.76078e-05
 Reference value :  2.76324e-05
 Reference value :  2.76485e-05
 Reference value :  2.76766e-05
 Reference value :  2.77225e-05
 Reference value :  2.77282e-05
 Reference value :  2.77325e-05
 Reference value :  2.77475e-05
 Reference value :  2.77501e-05
 Reference value :  2.77502e-05
 Reference value :  2.77503e-05
 Reference value :  2.77507e-05
 Reference value :  2.77514e-05
 Reference value :  2.77524e-05
 Reference value :  2.77537e-05
 Reference value :  2.77558e-05
 Reference value :  2.77594e-05
 Reference value :  2.77698e-05
 Reference value :  2.77801e-05
 Reference value :  2.78398e-05
 Reference value :  2.80019e-05
 Reference value :  2.80056e-05
 Reference value :  2.80075e-05
 Reference value :  2.80109e-05
 Reference value :  2.80148e-05
 Reference value :  2.80252e-05
 Reference value :  2.80609e-05
 Reference value :  2.82501e-05
 Reference value :  2.82502e-05
 Reference value :  2.82503e-05
 Reference value :  2.82509e-05
 Reference value :  2.82519e-05
 Reference value :  2.82536e-05
 Reference value :  2.82548e-05
 Reference value :  2.82562e-05
 Reference value :  2.82590e-05
 Reference value :  2.82635e-05
 Reference value :  2.83269e-05
 Reference value :  2.85000e-05
 Reference value :  2.85001e-05
 Reference value :  2.85005e-05
 Reference value :  2.85018e-05
 Reference value :  2.85033e-05
 Reference value :  2.85050e-05
 Reference value :  2.85061e-05
 Reference value :  2.85084e-05
 Reference value :  2.85107e-05
 Reference value :  2.85137e-05
 Reference value :  2.85154e-05
 Reference value :  2.85174e-05
 Reference value :  2.85195e-05
 Reference value :  2.85227e-05
 Reference value :  2.85359e-05
 Reference value :  2.85519e-05
 Reference value :  2.85645e-05
 Reference value :  2.85805e-05
 Reference value :  2.86153e-05
 Reference value :  2.87190e-05
 Reference value :  2.87501e-05
 Reference value :  2.87502e-05
 Reference value :  2.87504e-05
 Reference value :  2.87514e-05
 Reference value :  2.87530e-05
 Reference value :  2.87544e-05
 Reference value :  2.87557e-05
 Reference value :  2.87592e-05
 Reference value :  2.87725e-05
 Reference value :  2.88403e-05
 Reference value :  2.90018e-05
 Reference value :  2.90053e-05
 Reference value :  2.90071e-05
 Reference value :  2.90103e-05
 Reference value :  2.90150e-05
 Reference value :  2.90381e-05
 Reference value :  2.92087e-05
 Reference value :  2.92502e-05
 Reference value :  2.92502e-05
 Reference value :  2.92507e-05
 Reference value :  2.92514e-05
 Reference value :  2.92530e-05
 Reference value :  2.92542e-05
 Reference value :  2.92555e-05
 Reference value :  2.92573e-05
 Reference value :  2.92637e-05
 Reference value :  2.93300e-05
 Reference value :  2.95000e-05
 Reference value :  2.95001e-05
 Reference value :  2.95002e-05
 Reference value :  2.95008e-05
 Reference value :  2.95022e-05
 Reference value :  2.95033e-05
 Reference value :  2.95044e-05
 Reference value :  2.95056e-05
 Reference value :  2.95067e-05
 Reference value :  2.95100e-05
 Reference value :  2.95128e-05
 Reference value :  2.95149e-05
 Reference value :  2.95171e-05
 Reference value :  2.95211e-05
 Reference value :  2.95290e-05
 Reference value :  2.95410e-05
 Reference value :  2.95490e-05
 Reference value :  2.95585e-05
 Reference value :  2.95706e-05
 Reference value :  2.96247e-05
 Reference value :  2.97501e-05
 Reference value :  2.97502e-05
 Reference value :  2.97507e-05
 Reference value :  2.97518e-05
 Reference value :  2.97537e-05
 Reference value :  2.97579e-05
 Reference value :  2.97846e-05
 Reference value :  3.00000e-05
 Reference value :  3.00001e-05
 Reference value :  3.00002e-05
 Reference value :  3.00005e-05
 Reference value :  3.00013e-05
 Reference value :  3.00022e-05
 Reference value :  3.00039e-05
 Reference value :  3.00055e-05
 Reference value :  3.00073e-05
 Reference value :  3.00090e-05
 Reference value :  3.00124e-05
 Reference value :  3.00850e-05
 Reference value :  3.02502e-05
 Reference value :  3.02504e-05
 Reference value :  3.02514e-05
 Reference value :  3.02538e-05
 Reference value :  3.02550e-05
 Reference value :  3.02576e-05
 Reference value :  3.02607e-05
 Reference value :  3.02752e-05
 Reference value :  3.05000e-05
 Reference value :  3.05012e-05
 Reference value :  3.05050e-05
 Reference value :  3.05072e-05
 Reference value :  3.05102e-05
 Reference value :  3.05122e-05
 Reference value :  3.05141e-05
 Reference value :  3.05158e-05
 Reference value :  3.05178e-05
 Reference value :  3.05216e-05
 Reference value :  3.05349e-05
 Reference value :  3.05415e-05
 Reference value :  3.05474e-05
 Reference value :  3.05605e-05
 Reference value :  3.06041e-05
 Reference value :  3.06552e-05
 Reference value :  3.06743e-05
 Reference value :  3.07073e-05
 Reference value :  3.07501e-05
 Reference value :  3.07502e-05
 Reference value :  3.07503e-05
 Reference value :  3.07509e-05
 Reference value :  3.07514e-05
 Reference value :  3.07530e-05
 Reference value :  3.07544e-05
 Reference value :  3.07567e-05
 Reference value :  3.07617e-05
 Reference value :  3.08034e-05
 Reference value :  3.10000e-05
 Reference value :  3.10001e-05
 Reference value :  3.10003e-05
 Reference value :  3.10013e-05
 Reference value :  3.10026e-05
 Reference value :  3.10048e-05
 Reference value :  3.10075e-05
 Reference value :  3.10092e-05
 Reference value :  3.10112e-05
 Reference value :  3.10448e-05
 Reference value :  3.12501e-05
 Reference value :  3.12502e-05
 Reference value :  3.12504e-05
 Reference value :  3.12514e-05
 Reference value :  3.12530e-05
 Reference value :  3.12544e-05
 Reference value :  3.12567e-05
 Reference value :  3.12584e-05
 Reference value :  3.12607e-05
 Reference value :  3.12683e-05
 Reference value :  3.13486e-05
 Reference value :  3.15000e-05
 Reference value :  3.15001e-05
 Reference value :  3.15002e-05
 Reference value :  3.15005e-05
 Reference value :  3.15013e-05
 Reference value :  3.15022e-05
 Reference value :  3.15033e-05
 Reference value :  3.15044e-05
 Reference value :  3.15056e-05
 Reference value :  3.15061e-05
 Reference value :  3.15075e-05
 Reference value :  3.15097e-05
 Reference value :  3.15107e-05
 Reference value :  3.15128e-05
 Reference value :  3.15145e-05
 Reference value :  3.15176e-05
 Reference value :  3.15218e-05
 Reference value :  3.15295e-05
 Reference value :  3.15380e-05
 Reference value :  3.15468e-05
 Reference value :  3.15560e-05
 Reference value :  3.15799e-05
 Reference value :  3.16461e-05
 Reference value :  3.17501e-05
 Reference value :  3.17502e-05
 Reference value :  3.17503e-05
 Reference value :  3.17507e-05
 Reference value :  3.17514e-05
 Reference value :  3.17524e-05
 Reference value :  3.17538e-05
 Reference value :  3.17544e-05
 Reference value :  3.17557e-05
 Reference value :  3.17576e-05
 Reference value :  3.17654e-05
 Reference value :  3.18049e-05
 Reference value :  3.20000e-05
 Reference value :  3.20000e-05
 Reference value :  3.20001e-05
 Reference value :  3.20001e-05
 Reference value :  3.20002e-05
 Reference value :  3.20008e-05
 Reference value :  3.20018e-05
 Reference value :  3.20027e-05
 Reference value :  3.20032e-05
 Reference value :  3.20044e-05
 Reference value :  3.20062e-05
 Reference value :  3.20082e-05
 Reference value :  3.20104e-05
 Reference value :  3.20129e-05
 Reference value :  3.20450e-05
 Reference value :  3.21432e-05
 Reference value :  3.22501e-05
 Reference value :  3.22502e-05
 Reference value :  3.22503e-05
 Reference value :  3.22507e-05
 Reference value :  3.22514e-05
 Reference value :  3.22530e-05
 Reference value :  3.22544e-05
 Reference value :  3.22567e-05
 Reference value :  3.22654e-05
 Reference value :  3.23047e-05
 Reference value :  3.25000e-05
 Reference value :  3.25001e-05
 Reference value :  3.25001e-05
 Reference value :  3.25003e-05
 Reference value :  3.25013e-05
 Reference value :  3.25022e-05
 Reference value :  3.25033e-05
 Reference value :  3.25044e-05
 Reference value :  3.25056e-05
 Reference value :  3.25061e-05
 Reference value :  3.25076e-05
 Reference value :  3.25100e-05
 Reference value :  3.25128e-05
 Reference value :  3.25149e-05
 Reference value :  3.25170e-05
 Reference value :  3.25193e-05
 Reference value :  3.25250e-05
 Reference value :  3.25305e-05
 Reference value :  3.25416e-05
 Reference value :  3.25585e-05
 Reference value :  3.26418e-05
 Reference value :  3.27501e-05
 Reference value :  3.27502e-05
 Reference value :  3.27504e-05
 Reference value :  3.27514e-05
 Reference value :  3.27530e-05
 Reference value :  3.27551e-05
 Reference value :  3.27579e-05
 Reference value :  3.27660e-05
 Reference value :  3.30000e-05
 Reference value :  3.30001e-05
 Reference value :  3.30002e-05
 Reference value :  3.30005e-05
 Reference value :  3.30013e-05
 Reference value :  3.30022e-05
 Reference value :  3.30033e-05
 Reference value :  3.30047e-05
 Reference value :  3.30066e-05
 Reference value :  3.30074e-05
 Reference value :  3.30090e-05
 Reference value :  3.30112e-05
 Reference value :  3.30196e-05
 Reference value :  3.30830e-05
 Reference value :  3.32501e-05
 Reference value :  3.32502e-05
 Reference value :  3.32503e-05
 Reference value :  3.32507e-05
 Reference value :  3.32514e-05
 Reference value :  3.32523e-05
 Reference value :  3.32538e-05
 Reference value :  3.32550e-05
 Reference value :  3.32567e-05
 Reference value :  3.32584e-05
 Reference value :  3.32621e-05
 Reference value :  3.32752e-05
 Reference value :  3.33471e-05
 Reference value :  3.35013e-05
 Reference value :  3.35051e-05
 Reference value :  3.35074e-05
 Reference value :  3.35094e-05
 Reference value :  3.35111e-05
 Reference value :  3.35154e-05
 Reference value :  3.35234e-05
 Reference value :  3.35500e-05
 Reference value :  3.36139e-05
 Reference value :  3.36646e-05
 Reference value :  3.37501e-05
 Reference value :  3.37502e-05
 Reference value :  3.37504e-05
 Reference value :  3.37514e-05
 Reference value :  3.37524e-05
 Reference value :  3.37546e-05
 Reference value :  3.37577e-05
 Reference value :  3.37703e-05
 Reference value :  3.38712e-05
 Reference value :  3.40000e-05
 Reference value :  3.40000e-05
 Reference value :  3.40000e-05
 Reference value :  3.40000e-05
 Reference value :  3.40001e-05
 Reference value :  3.40003e-05
 Reference value :  3.40017e-05
 Reference value :  3.40027e-05
 Reference value :  3.40048e-05
 Reference value :  3.40061e-05
 Reference value :  3.40076e-05
 Reference value :  3.40142e-05
 Reference value :  3.40269e-05
 Reference value :  3.40314e-05
 Reference value :  3.40388e-05
 Reference value :  3.40477e-05
 Reference value :  3.40710e-05
 Reference value :  3.41592e-05
 Reference value :  3.42501e-05
 Reference value :  3.42502e-05
 Reference value :  3.42502e-05
 Reference value :  3.42504e-05
 Reference value :  3.42514e-05
 Reference value :  3.42524e-05
 Reference value :  3.42538e-05
 Reference value :  3.42544e-05
 Reference value :  3.42557e-05
 Reference value :  3.42592e-05
 Reference value :  3.42839e-05
 Reference value :  3.45000e-05
 Reference value :  3.45001e-05
 Reference value :  3.45002e-05
 Reference value :  3.45005e-05
 Reference value :  3.45013e-05
 Reference value :  3.45022e-05
 Reference value :  3.45038e-05
 Reference value :  3.45051e-05
 Reference value :  3.45089e-05
 Reference value :  3.45114e-05
 Reference value :  3.45143e-05
 Reference value :  3.45156e-05
 Reference value :  3.45212e-05
 Reference value :  3.45876e-05
 Reference value :  3.47501e-05
 Reference value :  3.47502e-05
 Reference value :  3.47507e-05
 Reference value :  3.47514e-05
 Reference value :  3.47530e-05
 Reference value :  3.47544e-05
 Reference value :  3.47576e-05
 Reference value :  3.47725e-05
 Reference value :  3.50000e-05
 Reference value :  3.50001e-05
 Reference value :  3.50002e-05
 Reference value :  3.50008e-05
 Reference value :  3.50018e-05
 Reference value :  3.50027e-05
 Reference value :  3.50039e-05
 Reference value :  3.50050e-05
 Reference value :  3.50056e-05
 Reference value :  3.50076e-05
 Reference value :  3.50114e-05
 Reference value :  3.50128e-05
 Reference value :  3.50149e-05
 Reference value :  3.50171e-05
 Reference value :  3.50211e-05
 Reference value :  3.50307e-05
 Reference value :  3.50454e-05
 Reference value :  3.50530e-05
 Reference value :  3.50594e-05
 Reference value :  3.50676e-05
 Reference value :  3.50953e-05
 Reference value :  3.51997e-05
 Reference value :  3.52501e-05
 Reference value :  3.52502e-05
 Reference value :  3.52502e-05
 Reference value :  3.52503e-05
 Reference value :  3.52507e-05
 Reference value :  3.52514e-05
 Reference value :  3.52530e-05
 Reference value :  3.52544e-05
 Reference value :  3.52558e-05
 Reference value :  3.52594e-05
 Reference value :  3.52846e-05
 Reference value :  3.54008e-05
 Reference value :  3.55000e-05
 Reference value :  3.55001e-05
 Reference value :  3.55001e-05
 Reference value :  3.55002e-05
 Reference value :  3.55005e-05
 Reference value :  3.55013e-05
 Reference value :  3.55022e-05
 Reference value :  3.55039e-05
 Reference value :  3.55055e-05
 Reference value :  3.55073e-05
 Reference value :  3.55090e-05
 Reference value :  3.55112e-05
 Reference value :  3.55196e-05
 Reference value :  3.55848e-05
 Reference value :  3.57501e-05
 Reference value :  3.57502e-05
 Reference value :  3.57503e-05
 Reference value :  3.57507e-05
 Reference value :  3.57514e-05
 Reference value :  3.57524e-05
 Reference value :  3.57538e-05
 Reference value :  3.57544e-05
 Reference value :  3.57558e-05
 Reference value :  3.57576e-05
 Reference value :  3.57593e-05
 Reference value :  3.57649e-05
 Reference value :  3.57875e-05
 Reference value :  3.59256e-05
 Reference value :  3.60013e-05
 Reference value :  3.60051e-05
 Reference value :  3.60073e-05
 Reference value :  3.60103e-05
 Reference value :  3.60122e-05
 Reference value :  3.60140e-05
 Reference value :  3.60157e-05
 Reference value :  3.60176e-05
 Reference value :  3.60197e-05
 Reference value :  3.60230e-05
 Reference value :  3.60314e-05
 Reference value :  3.60539e-05
 Reference value :  3.61018e-05
 Reference value :  3.61221e-05
 Reference value :  3.61398e-05
 Reference value :  3.61481e-05
 Reference value :  3.61557e-05
 Reference value :  3.61727e-05
 Reference value :  3.62114e-05
 Reference value :  3.62501e-05
 Reference value :  3.62501e-05
 Reference value :  3.62502e-05
 Reference value :  3.62502e-05
 Reference value :  3.62503e-05
 Reference value :  3.62507e-05
 Reference value :  3.62514e-05
 Reference value :  3.62524e-05
 Reference value :  3.62536e-05
 Reference value :  3.62543e-05
 Reference value :  3.62555e-05
 Reference value :  3.62574e-05
 Reference value :  3.62610e-05
 Reference value :  3.62687e-05
 Reference value :  3.62851e-05
 Reference value :  3.63219e-05
 Reference value :  3.65000e-05
 Reference value :  3.65000e-05
 Reference value :  3.65001e-05
 Reference value :  3.65002e-05
 Reference value :  3.65003e-05
 Reference value :  3.65008e-05
 Reference value :  3.65013e-05
 Reference value :  3.65022e-05
 Reference value :  3.65039e-05
 Reference value :  3.65055e-05
 Reference value :  3.65073e-05
 Reference value :  3.65090e-05
 Reference value :  3.65149e-05
 Reference value :  3.67501e-05
 Reference value :  3.67502e-05
 Reference value :  3.67509e-05
 Reference value :  3.67518e-05
 Reference value :  3.67538e-05
 Reference value :  3.67558e-05
 Reference value :  3.67584e-05
 Reference value :  3.67649e-05
 Reference value :  3.68488e-05
 Reference value :  3.70001e-05
 Reference value :  3.70002e-05
 Reference value :  3.70008e-05
 Reference value :  3.70018e-05
 Reference value :  3.70033e-05
 Reference value :  3.70044e-05
 Reference value :  3.70056e-05
 Reference value :  3.70067e-05
 Reference value :  3.70097e-05
 Reference value :  3.70117e-05
 Reference value :  3.70137e-05
 Reference value :  3.70165e-05
 Reference value :  3.70197e-05
 Reference value :  3.70306e-05
 Reference value :  3.70537e-05
 Reference value :  3.70629e-05
 Reference value :  3.70725e-05
 Reference value :  3.71105e-05
 Reference value :  3.72311e-05
 Reference value :  3.72502e-05
 Reference value :  3.72503e-05
 Reference value :  3.72507e-05
 Reference value :  3.72514e-05
 Reference value :  3.72524e-05
 Reference value :  3.72538e-05
 Reference value :  3.72550e-05
 Reference value :  3.72576e-05
 Reference value :  3.72725e-05
 Reference value :  3.74069e-05
 Reference value :  3.75001e-05
 Reference value :  3.75002e-05
 Reference value :  3.75005e-05
 Reference value :  3.75013e-05
 Reference value :  3.75022e-05
 Reference value :  3.75032e-05
 Reference value :  3.75044e-05
 Reference value :  3.75062e-05
 Reference value :  3.75082e-05
 Reference value :  3.75116e-05
 Reference value :  3.75288e-05
 Reference value :  3.77501e-05
 Reference value :  3.77502e-05
 Reference value :  3.77503e-05
 Reference value :  3.77509e-05
 Reference value :  3.77518e-05
 Reference value :  3.77538e-05
 Reference value :  3.77551e-05
 Reference value :  3.77567e-05
 Reference value :  3.77614e-05
 Reference value :  3.78049e-05
 Reference value :  3.80000e-05
 Reference value :  3.80001e-05
 Reference value :  3.80002e-05
 Reference value :  3.80005e-05
 Reference value :  3.80013e-05
 Reference value :  3.80027e-05
 Reference value :  3.80044e-05
 Reference value :  3.80056e-05
 Reference value :  3.80067e-05
 Reference value :  3.80100e-05
 Reference value :  3.80128e-05
 Reference value :  3.80160e-05
 Reference value :  3.80182e-05
 Reference value :  3.80258e-05
 Reference value :  3.80404e-05
 Reference value :  3.80525e-05
 Reference value :  3.80681e-05
 Reference value :  3.81209e-05
 Reference value :  3.82501e-05
 Reference value :  3.82502e-05
 Reference value :  3.82507e-05
 Reference value :  3.82514e-05
 Reference value :  3.82537e-05
 Reference value :  3.82567e-05
 Reference value :  3.82729e-05
 Reference value :  3.84007e-05
 Reference value :  3.85018e-05
 Reference value :  3.85074e-05
 Reference value :  3.85108e-05
 Reference value :  3.85144e-05
 Reference value :  3.85313e-05
 Reference value :  3.85922e-05
 Reference value :  3.87501e-05
 Reference value :  3.87502e-05
 Reference value :  3.87504e-05
 Reference value :  3.87514e-05
 Reference value :  3.87524e-05
 Reference value :  3.87542e-05
 Reference value :  3.87555e-05
 Reference value :  3.87571e-05
 Reference value :  3.87591e-05
 Reference value :  3.87638e-05
 Reference value :  3.87999e-05
 Reference value :  3.90000e-05
 Reference value :  3.90000e-05
 Reference value :  3.90001e-05
 Reference value :  3.90002e-05
 Reference value :  3.90013e-05
 Reference value :  3.90022e-05
 Reference value :  3.90039e-05
 Reference value :  3.90044e-05
 Reference value :  3.90056e-05
 Reference value :  3.90061e-05
 Reference value :  3.90076e-05
 Reference value :  3.90097e-05
 Reference value :  3.90107e-05
 Reference value :  3.90129e-05
 Reference value :  3.90145e-05
 Reference value :  3.90165e-05
 Reference value :  3.90188e-05
 Reference value :  3.90240e-05
 Reference value :  3.90268e-05
 Reference value :  3.90340e-05
 Reference value :  3.90376e-05
 Reference value :  3.90402e-05
 Reference value :  3.90453e-05
 Reference value :  3.90564e-05
 Reference value :  3.90812e-05
 Reference value :  3.91123e-05
 Reference value :  3.91644e-05
 Reference value :  3.91866e-05
 Reference value :  3.92086e-05
 Reference value :  3.92501e-05
 Reference value :  3.92501e-05
 Reference value :  3.92502e-05
 Reference value :  3.92503e-05
 Reference value :  3.92509e-05
 Reference value :  3.92518e-05
 Reference value :  3.92537e-05
 Reference value :  3.92558e-05
 Reference value :  3.92579e-05
 Reference value :  3.92660e-05
 Reference value :  3.93047e-05
 Reference value :  3.94795e-05
 Reference value :  3.95000e-05
 Reference value :  3.95001e-05
 Reference value :  3.95002e-05
 Reference value :  3.95008e-05
 Reference value :  3.95013e-05
 Reference value :  3.95022e-05
 Reference value :  3.95039e-05
 Reference value :  3.95055e-05
 Reference value :  3.95073e-05
 Reference value :  3.95090e-05
 Reference value :  3.95112e-05
 Reference value :  3.95196e-05
 Reference value :  3.95847e-05
 Reference value :  3.97501e-05
 Reference value :  3.97502e-05
 Reference value :  3.97502e-05
 Reference value :  3.97503e-05
 Reference value :  3.97504e-05
 Reference value :  3.97507e-05
 Reference value :  3.97514e-05
 Reference value :  3.97524e-05
 Reference value :  3.97538e-05
 Reference value :  3.97544e-05
 Reference value :  3.97558e-05
 Reference value :  3.97576e-05
 Reference value :  3.97593e-05
 Reference value :  3.97648e-05
 Reference value :  3.98075e-05
 Reference value :  4.00000e-05
 Reference value :  4.00001e-05
 Reference value :  4.00002e-05
 Reference value :  4.00008e-05
 Reference value :  4.00018e-05
 Reference value :  4.00027e-05
 Reference value :  4.00039e-05
 Reference value :  4.00044e-05
 Reference value :  4.00056e-05
 Reference value :  4.00084e-05
 Reference value :  4.00117e-05
 Reference value :  4.00145e-05
 Reference value :  4.00187e-05
 Reference value :  4.00251e-05
 Reference value :  4.00349e-05
 Reference value :  4.00402e-05
 Reference value :  4.00534e-05
 Reference value :  4.00999e-05
 Reference value :  4.02501e-05
 Reference value :  4.02502e-05
 Reference value :  4.02504e-05
 Reference value :  4.02514e-05
 Reference value :  4.02530e-05
 Reference value :  4.02544e-05
 Reference value :  4.02557e-05
 Reference value :  4.02592e-05
 Reference value :  4.02724e-05
 Reference value :  4.03403e-05
 Reference value :  4.05000e-05
 Reference value :  4.05001e-05
 Reference value :  4.05005e-05
 Reference value :  4.05013e-05
 Reference value :  4.05027e-05
 Reference value :  4.05044e-05
 Reference value :  4.05082e-05
 Reference value :  4.05129e-05
 Reference value :  4.06449e-05
 Reference value :  4.07502e-05
 Reference value :  4.07503e-05
 Reference value :  4.07514e-05
 Reference value :  4.07538e-05
 Reference value :  4.07567e-05
 Reference value :  4.07725e-05
 Reference value :  4.09051e-05
 Reference value :  4.10015e-05
 Reference value :  4.10045e-05
 Reference value :  4.10061e-05
 Reference value :  4.10092e-05
 Reference value :  4.10106e-05
 Reference value :  4.10120e-05
 Reference value :  4.10135e-05
 Reference value :  4.10145e-05
 Reference value :  4.10168e-05
 Reference value :  4.10192e-05
 Reference value :  4.10228e-05
 Reference value :  4.10295e-05
 Reference value :  4.10342e-05
 Reference value :  4.10428e-05
 Reference value :  4.10520e-05
 Reference value :  4.10637e-05
 Reference value :  4.10783e-05
 Reference value :  4.11214e-05
 Reference value :  4.12301e-05
 Reference value :  4.12501e-05
 Reference value :  4.12502e-05
 Reference value :  4.12502e-05
 Reference value :  4.12503e-05
 Reference value :  4.12507e-05
 Reference value :  4.12514e-05
 Reference value :  4.12524e-05
 Reference value :  4.12537e-05
 Reference value :  4.12551e-05
 Reference value :  4.12567e-05
 Reference value :  4.12618e-05
 Reference value :  4.12845e-05
 Reference value :  4.14004e-05
 Reference value :  4.15000e-05
 Reference value :  4.15001e-05
 Reference value :  4.15002e-05
 Reference value :  4.15008e-05
 Reference value :  4.15018e-05
 Reference value :  4.15022e-05
 Reference value :  4.15039e-05
 Reference value :  4.15055e-05
 Reference value :  4.15074e-05
 Reference value :  4.15090e-05
 Reference value :  4.15112e-05
 Reference value :  4.15196e-05
 Reference value :  4.15836e-05
 Reference value :  4.17501e-05
 Reference value :  4.17502e-05
 Reference value :  4.17503e-05
 Reference value :  4.17507e-05
 Reference value :  4.17514e-05
 Reference value :  4.17530e-05
 Reference value :  4.17544e-05
 Reference value :  4.17567e-05
 Reference value :  4.17584e-05
 Reference value :  4.17621e-05
 Reference value :  4.17871e-05
 Reference value :  4.20000e-05
 Reference value :  4.20001e-05
 Reference value :  4.20001e-05
 Reference value :  4.20003e-05
 Reference value :  4.20013e-05
 Reference value :  4.20022e-05
 Reference value :  4.20033e-05
 Reference value :  4.20044e-05
 Reference value :  4.20056e-05
 Reference value :  4.20067e-05
 Reference value :  4.20084e-05
 Reference value :  4.20100e-05
 Reference value :  4.20129e-05
 Reference value :  4.20198e-05
 Reference value :  4.20488e-05
 Reference value :  4.20596e-05
 Reference value :  4.20676e-05
 Reference value :  4.21002e-05
 Reference value :  4.21931e-05
 Reference value :  4.22501e-05
 Reference value :  4.22502e-05
 Reference value :  4.22503e-05
 Reference value :  4.22510e-05
 Reference value :  4.22519e-05
 Reference value :  4.22530e-05
 Reference value :  4.22547e-05
 Reference value :  4.22579e-05
 Reference value :  4.22618e-05
 Reference value :  4.22712e-05
 Reference value :  4.23254e-05
 Reference value :  4.25000e-05
 Reference value :  4.25000e-05
 Reference value :  4.25000e-05
 Reference value :  4.25000e-05
 Reference value :  4.25001e-05
 Reference value :  4.25001e-05
 Reference value :  4.25002e-05
 Reference value :  4.25008e-05
 Reference value :  4.25017e-05
 Reference value :  4.25022e-05
 Reference value :  4.25040e-05
 Reference value :  4.25054e-05
 Reference value :  4.25068e-05
 Reference value :  4.25109e-05
 Reference value :  4.25208e-05
 Reference value :  4.25269e-05
 Reference value :  4.25314e-05
 Reference value :  4.25388e-05
 Reference value :  4.25476e-05
 Reference value :  4.25696e-05
 Reference value :  4.26228e-05
 Reference value :  4.27501e-05
 Reference value :  4.27502e-05
 Reference value :  4.27503e-05
 Reference value :  4.27509e-05
 Reference value :  4.27518e-05
 Reference value :  4.27530e-05
 Reference value :  4.27544e-05
 Reference value :  4.27557e-05
 Reference value :  4.27654e-05
 Reference value :  4.30000e-05
 Reference value :  4.30001e-05
 Reference value :  4.30002e-05
 Reference value :  4.30013e-05
 Reference value :  4.30022e-05
 Reference value :  4.30038e-05
 Reference value :  4.30051e-05
 Reference value :  4.30089e-05
 Reference value :  4.30127e-05
 Reference value :  4.30156e-05
 Reference value :  4.30191e-05
 Reference value :  4.30319e-05
 Reference value :  4.32501e-05
 Reference value :  4.32502e-05
 Reference value :  4.32503e-05
 Reference value :  4.32507e-05
 Reference value :  4.32518e-05
 Reference value :  4.32538e-05
 Reference value :  4.32558e-05
 Reference value :  4.32614e-05
 Reference value :  4.33048e-05
 Reference value :  4.35018e-05
 Reference value :  4.35072e-05
 Reference value :  4.35112e-05
 Reference value :  4.35141e-05
 Reference value :  4.35165e-05
 Reference value :  4.35189e-05
 Reference value :  4.35287e-05
 Reference value :  4.35440e-05
 Reference value :  4.35528e-05
 Reference value :  4.35596e-05
 Reference value :  4.35749e-05
 Reference value :  4.35986e-05
 Reference value :  4.37501e-05
 Reference value :  4.37502e-05
 Reference value :  4.37503e-05
 Reference value :  4.37509e-05
 Reference value :  4.37519e-05
 Reference value :  4.37536e-05
 Reference value :  4.37549e-05
 Reference value :  4.37573e-05
 Reference value :  4.37642e-05
 Reference value :  4.38343e-05
 Reference value :  4.40000e-05
 Reference value :  4.40001e-05
 Reference value :  4.40003e-05
 Reference value :  4.40013e-05
 Reference value :  4.40022e-05
 Reference value :  4.40039e-05
 Reference value :  4.40055e-05
 Reference value :  4.40073e-05
 Reference value :  4.40090e-05
 Reference value :  4.40124e-05
 Reference value :  4.40476e-05
 Reference value :  4.42501e-05
 Reference value :  4.42502e-05
 Reference value :  4.42503e-05
 Reference value :  4.42507e-05
 Reference value :  4.42514e-05
 Reference value :  4.42524e-05
 Reference value :  4.42538e-05
 Reference value :  4.42550e-05
 Reference value :  4.42567e-05
 Reference value :  4.42584e-05
 Reference value :  4.42621e-05
 Reference value :  4.42874e-05
 Reference value :  4.45000e-05
 Reference value :  4.45001e-05
 Reference value :  4.45001e-05
 Reference value :  4.45005e-05
 Reference value :  4.45018e-05
 Reference value :  4.45033e-05
 Reference value :  4.45044e-05
 Reference value :  4.45056e-05
 Reference value :  4.45061e-05
 Reference value :  4.45076e-05
 Reference value :  4.45097e-05
 Reference value :  4.45117e-05
 Reference value :  4.45137e-05
 Reference value :  4.45155e-05
 Reference value :  4.45175e-05
 Reference value :  4.45197e-05
 Reference value :  4.45231e-05
 Reference value :  4.45414e-05
 Reference value :  4.46076e-05
 Reference value :  4.46290e-05
 Reference value :  4.46442e-05
 Reference value :  4.46686e-05
 Reference value :  4.47149e-05
 Reference value :  4.47385e-05
 Reference value :  4.47459e-05
 Reference value :  4.47501e-05
 Reference value :  4.47502e-05
 Reference value :  4.47502e-05
 Reference value :  4.47504e-05
 Reference value :  4.47514e-05
 Reference value :  4.47530e-05
 Reference value :  4.47551e-05
 Reference value :  4.47579e-05
 Reference value :  4.47618e-05
 Reference value :  4.47736e-05
 Reference value :  4.47997e-05
 Reference value :  4.49402e-05
 Reference value :  4.50000e-05
 Reference value :  4.50001e-05
 Reference value :  4.50003e-05
 Reference value :  4.50013e-05
 Reference value :  4.50022e-05
 Reference value :  4.50039e-05
 Reference value :  4.50055e-05
 Reference value :  4.50073e-05
 Reference value :  4.50090e-05
 Reference value :  4.50124e-05
 Reference value :  4.50289e-05
 Reference value :  4.52501e-05
 Reference value :  4.52502e-05
 Reference value :  4.52502e-05
 Reference value :  4.52507e-05
 Reference value :  4.52514e-05
 Reference value :  4.52538e-05
 Reference value :  4.52550e-05
 Reference value :  4.52567e-05
 Reference value :  4.52584e-05
 Reference value :  4.52621e-05
 Reference value :  4.52874e-05
 Reference value :  4.54246e-05
 Reference value :  4.55000e-05
 Reference value :  4.55001e-05
 Reference value :  4.55002e-05
 Reference value :  4.55005e-05
 Reference value :  4.55013e-05
 Reference value :  4.55022e-05
 Reference value :  4.55033e-05
 Reference value :  4.55044e-05
 Reference value :  4.55056e-05
 Reference value :  4.55067e-05
 Reference value :  4.55097e-05
 Reference value :  4.55117e-05
 Reference value :  4.55128e-05
 Reference value :  4.55137e-05
 Reference value :  4.55155e-05
 Reference value :  4.55187e-05
 Reference value :  4.55230e-05
 Reference value :  4.55471e-05
 Reference value :  4.55545e-05
 Reference value :  4.55606e-05
 Reference value :  4.55639e-05
 Reference value :  4.55664e-05
 Reference value :  4.55730e-05
 Reference value :  4.55957e-05
 Reference value :  4.56535e-05
 Reference value :  4.57501e-05
 Reference value :  4.57502e-05
 Reference value :  4.57503e-05
 Reference value :  4.57509e-05
 Reference value :  4.57514e-05
 Reference value :  4.57530e-05
 Reference value :  4.57544e-05
 Reference value :  4.57557e-05
 Reference value :  4.57576e-05
 Reference value :  4.57654e-05
 Reference value :  4.57840e-05
 Reference value :  4.59069e-05
 Reference value :  4.60018e-05
 Reference value :  4.60053e-05
 Reference value :  4.60071e-05
 Reference value :  4.60103e-05
 Reference value :  4.60133e-05
 Reference value :  4.60215e-05
 Reference value :  4.60549e-05
 Reference value :  4.62501e-05
 Reference value :  4.62501e-05
 Reference value :  4.62502e-05
 Reference value :  4.62503e-05
 Reference value :  4.62509e-05
 Reference value :  4.62519e-05
 Reference value :  4.62537e-05
 Reference value :  4.62548e-05
 Reference value :  4.62573e-05
 Reference value :  4.62637e-05
 Reference value :  4.63300e-05
 Reference value :  4.65000e-05
 Reference value :  4.65001e-05
 Reference value :  4.65002e-05
 Reference value :  4.65008e-05
 Reference value :  4.65018e-05
 Reference value :  4.65027e-05
 Reference value :  4.65039e-05
 Reference value :  4.65044e-05
 Reference value :  4.65056e-05
 Reference value :  4.65067e-05
 Reference value :  4.65100e-05
 Reference value :  4.65128e-05
 Reference value :  4.65149e-05
 Reference value :  4.65171e-05
 Reference value :  4.65211e-05
 Reference value :  4.65347e-05
 Reference value :  4.65399e-05
 Reference value :  4.65475e-05
 Reference value :  4.65607e-05
 Reference value :  4.65917e-05
 Reference value :  4.67501e-05
 Reference value :  4.67502e-05
 Reference value :  4.67502e-05
 Reference value :  4.67504e-05
 Reference value :  4.67514e-05
 Reference value :  4.67530e-05
 Reference value :  4.67544e-05
 Reference value :  4.67567e-05
 Reference value :  4.67618e-05
 Reference value :  4.67846e-05
 Reference value :  4.69007e-05
 Reference value :  4.70000e-05
 Reference value :  4.70001e-05
 Reference value :  4.70002e-05
 Reference value :  4.70008e-05
 Reference value :  4.70018e-05
 Reference value :  4.70026e-05
 Reference value :  4.70039e-05
 Reference value :  4.70055e-05
 Reference value :  4.70073e-05
 Reference value :  4.70090e-05
 Reference value :  4.70112e-05
 Reference value :  4.70196e-05
 Reference value :  4.70850e-05
[...]
 Reference value :  1.67009e-04
 Reference value :  1.67012e-04
 Reference value :  1.67020e-04
 Reference value :  1.67145e-04
 Reference value :  1.67250e-04
 Reference value :  1.67250e-04
 Reference value :  1.67250e-04
 Reference value :  1.67251e-04
 Reference value :  1.67252e-04
 Reference value :  1.67254e-04
 Reference value :  1.67255e-04
 Reference value :  1.67257e-04
 Reference value :  1.67259e-04
 Reference value :  1.67273e-04
 Reference value :  1.67340e-04
 Reference value :  1.67500e-04
 Reference value :  1.67500e-04
 Reference value :  1.67500e-04
 Reference value :  1.67500e-04
 Reference value :  1.67501e-04
 Reference value :  1.67503e-04
 Reference value :  1.67504e-04
 Reference value :  1.67505e-04
 Reference value :  1.67506e-04
 Reference value :  1.67508e-04
 Reference value :  1.67513e-04
 Reference value :  1.67515e-04
 Reference value :  1.67517e-04
 Reference value :  1.67519e-04
 Reference value :  1.67526e-04
 Reference value :  1.67542e-04
 Reference value :  1.67559e-04
 Reference value :  1.67573e-04
 Reference value :  1.67604e-04
 Reference value :  1.67750e-04
 Reference value :  1.67750e-04
 Reference value :  1.67750e-04
 Reference value :  1.67750e-04
 Reference value :  1.67751e-04
 Reference value :  1.67753e-04
 Reference value :  1.67755e-04
 Reference value :  1.67758e-04
 Reference value :  1.67785e-04
 Reference value :  1.68000e-04
 Reference value :  1.68000e-04
 Reference value :  1.68000e-04
 Reference value :  1.68000e-04
 Reference value :  1.68001e-04
 Reference value :  1.68002e-04
 Reference value :  1.68004e-04
 Reference value :  1.68006e-04
 Reference value :  1.68007e-04
 Reference value :  1.68009e-04
 Reference value :  1.68011e-04
 Reference value :  1.68020e-04
 Reference value :  1.68085e-04
 Reference value :  1.68250e-04
 Reference value :  1.68250e-04
 Reference value :  1.68250e-04
 Reference value :  1.68251e-04
 Reference value :  1.68251e-04
 Reference value :  1.68252e-04
 Reference value :  1.68254e-04
 Reference value :  1.68254e-04
 Reference value :  1.68256e-04
 Reference value :  1.68258e-04
 Reference value :  1.68262e-04
 Reference value :  1.68275e-04
 Reference value :  1.68348e-04
 Reference value :  1.68500e-04
 Reference value :  1.68500e-04
 Reference value :  1.68500e-04
 Reference value :  1.68500e-04
 Reference value :  1.68500e-04
 Reference value :  1.68501e-04
 Reference value :  1.68502e-04
 Reference value :  1.68503e-04
 Reference value :  1.68504e-04
 Reference value :  1.68506e-04
 Reference value :  1.68506e-04
 Reference value :  1.68508e-04
 Reference value :  1.68511e-04
 Reference value :  1.68513e-04
 Reference value :  1.68514e-04
 Reference value :  1.68516e-04
 Reference value :  1.68518e-04
 Reference value :  1.68522e-04
 Reference value :  1.68527e-04
 Reference value :  1.68552e-04
 Reference value :  1.68679e-04
 Reference value :  1.68750e-04
 Reference value :  1.68750e-04
 Reference value :  1.68750e-04
 Reference value :  1.68751e-04
 Reference value :  1.68752e-04
 Reference value :  1.68754e-04
 Reference value :  1.68755e-04
 Reference value :  1.68758e-04
 Reference value :  1.68772e-04
 Reference value :  1.68907e-04
 Reference value :  1.69000e-04
 Reference value :  1.69000e-04
 Reference value :  1.69000e-04
 Reference value :  1.69001e-04
 Reference value :  1.69002e-04
 Reference value :  1.69003e-04
 Reference value :  1.69004e-04
 Reference value :  1.69007e-04
 Reference value :  1.69009e-04
 Reference value :  1.69013e-04
 Reference value :  1.69045e-04
 Reference value :  1.69250e-04
 Reference value :  1.69250e-04
 Reference value :  1.69250e-04
 Reference value :  1.69251e-04
 Reference value :  1.69254e-04
 Reference value :  1.69256e-04
 Reference value :  1.69261e-04
 Reference value :  1.69340e-04
 Reference value :  1.69500e-04
 Reference value :  1.69500e-04
 Reference value :  1.69501e-04
 Reference value :  1.69502e-04
 Reference value :  1.69504e-04
 Reference value :  1.69504e-04
 Reference value :  1.69506e-04
 Reference value :  1.69506e-04
 Reference value :  1.69508e-04
 Reference value :  1.69509e-04
 Reference value :  1.69511e-04
 Reference value :  1.69544e-04
 Reference value :  1.69750e-04
 Reference value :  1.69750e-04
 Reference value :  1.69750e-04
 Reference value :  1.69751e-04
 Reference value :  1.69751e-04
 Reference value :  1.69753e-04
 Reference value :  1.69755e-04
 Reference value :  1.69758e-04
 Reference value :  1.69771e-04
 Reference value :  1.69884e-04
 Reference value :  1.70000e-04
 Reference value :  1.70000e-04
 Reference value :  1.70000e-04
 Reference value :  1.70000e-04
 Reference value :  1.70000e-04
 Reference value :  1.70000e-04
 Reference value :  1.70001e-04
 Reference value :  1.70002e-04
 Reference value :  1.70003e-04
 Reference value :  1.70005e-04
 Reference value :  1.70005e-04
 Reference value :  1.70007e-04
 Reference value :  1.70011e-04
 Reference value :  1.70021e-04
 Reference value :  1.70027e-04
 Reference value :  1.70031e-04
 Reference value :  1.70039e-04
 Reference value :  1.70044e-04
 Reference value :  1.70060e-04
 Reference value :  1.70122e-04
 Reference value :  1.70250e-04
 Reference value :  1.70250e-04
 Reference value :  1.70250e-04
 Reference value :  1.70251e-04
 Reference value :  1.70251e-04
 Reference value :  1.70252e-04
 Reference value :  1.70254e-04
 Reference value :  1.70254e-04
 Reference value :  1.70256e-04
 Reference value :  1.70258e-04
 Reference value :  1.70261e-04
 Reference value :  1.70272e-04
 Reference value :  1.70305e-04
 Reference value :  1.70405e-04
 Reference value :  1.70500e-04
 Reference value :  1.70500e-04
 Reference value :  1.70500e-04
 Reference value :  1.70500e-04
 Reference value :  1.70500e-04
 Reference value :  1.70501e-04
 Reference value :  1.70501e-04
 Reference value :  1.70502e-04
 Reference value :  1.70503e-04
 Reference value :  1.70504e-04
 Reference value :  1.70506e-04
 Reference value :  1.70509e-04
 Reference value :  1.70510e-04
 Reference value :  1.70513e-04
 Reference value :  1.70516e-04
 Reference value :  1.70521e-04
 Reference value :  1.70587e-04
 Reference value :  1.70750e-04
 Reference value :  1.70750e-04
 Reference value :  1.70751e-04
 Reference value :  1.70751e-04
 Reference value :  1.70753e-04
 Reference value :  1.70754e-04
 Reference value :  1.70757e-04
 Reference value :  1.70765e-04
 Reference value :  1.70905e-04
 Reference value :  1.71000e-04
 Reference value :  1.71000e-04
 Reference value :  1.71001e-04
 Reference value :  1.71002e-04
 Reference value :  1.71003e-04
 Reference value :  1.71004e-04
 Reference value :  1.71004e-04
 Reference value :  1.71006e-04
 Reference value :  1.71007e-04
 Reference value :  1.71010e-04
 Reference value :  1.71013e-04
 Reference value :  1.71015e-04
 Reference value :  1.71017e-04
 Reference value :  1.71021e-04
 Reference value :  1.71032e-04
 Reference value :  1.71037e-04
 Reference value :  1.71055e-04
 Reference value :  1.71062e-04
 Reference value :  1.71075e-04
 Reference value :  1.71094e-04
 Reference value :  1.71235e-04
 Reference value :  1.71250e-04
 Reference value :  1.71250e-04
 Reference value :  1.71250e-04
 Reference value :  1.71251e-04
 Reference value :  1.71251e-04
 Reference value :  1.71252e-04
 Reference value :  1.71254e-04
 Reference value :  1.71255e-04
 Reference value :  1.71258e-04
 Reference value :  1.71273e-04
 Reference value :  1.71338e-04
 Reference value :  1.71500e-04
 Reference value :  1.71500e-04
 Reference value :  1.71500e-04
 Reference value :  1.71501e-04
 Reference value :  1.71502e-04
 Reference value :  1.71504e-04
 Reference value :  1.71506e-04
 Reference value :  1.71507e-04
 Reference value :  1.71509e-04
 Reference value :  1.71511e-04
 Reference value :  1.71520e-04
 Reference value :  1.71585e-04
 Reference value :  1.71750e-04
 Reference value :  1.71750e-04
 Reference value :  1.71750e-04
 Reference value :  1.71751e-04
 Reference value :  1.71752e-04
 Reference value :  1.71753e-04
 Reference value :  1.71754e-04
 Reference value :  1.71756e-04
 Reference value :  1.71758e-04
 Reference value :  1.71759e-04
 Reference value :  1.71765e-04
 Reference value :  1.71787e-04
 Reference value :  1.71926e-04
 Reference value :  1.72000e-04
 Reference value :  1.72000e-04
 Reference value :  1.72000e-04
 Reference value :  1.72000e-04
 Reference value :  1.72000e-04
 Reference value :  1.72001e-04
 Reference value :  1.72002e-04
 Reference value :  1.72003e-04
 Reference value :  1.72004e-04
 Reference value :  1.72006e-04
 Reference value :  1.72007e-04
 Reference value :  1.72010e-04
 Reference value :  1.72012e-04
 Reference value :  1.72014e-04
 Reference value :  1.72015e-04
 Reference value :  1.72019e-04
 Reference value :  1.72023e-04
 Reference value :  1.72085e-04
 Reference value :  1.72126e-04
 Reference value :  1.72151e-04
 Reference value :  1.72198e-04
 Reference value :  1.72250e-04
 Reference value :  1.72250e-04
 Reference value :  1.72251e-04
 Reference value :  1.72252e-04
 Reference value :  1.72254e-04
 Reference value :  1.72258e-04
 Reference value :  1.72272e-04
 Reference value :  1.72285e-04
 Reference value :  1.72303e-04
 Reference value :  1.72329e-04
 Reference value :  1.72463e-04
 Reference value :  1.72500e-04
 Reference value :  1.72500e-04
 Reference value :  1.72500e-04
 Reference value :  1.72501e-04
 Reference value :  1.72502e-04
 Reference value :  1.72504e-04
 Reference value :  1.72506e-04
 Reference value :  1.72507e-04
 Reference value :  1.72509e-04
 Reference value :  1.72511e-04
 Reference value :  1.72520e-04
 Reference value :  1.72585e-04
 Reference value :  1.72750e-04
 Reference value :  1.72750e-04
 Reference value :  1.72750e-04
 Reference value :  1.72751e-04
 Reference value :  1.72751e-04
 Reference value :  1.72752e-04
 Reference value :  1.72754e-04
 Reference value :  1.72755e-04
 Reference value :  1.72757e-04
 Reference value :  1.72758e-04
 Reference value :  1.72761e-04
 Reference value :  1.72765e-04
 Reference value :  1.72775e-04
 Reference value :  1.72848e-04
 Reference value :  1.73000e-04
 Reference value :  1.73000e-04
 Reference value :  1.73000e-04
 Reference value :  1.73000e-04
 Reference value :  1.73000e-04
 Reference value :  1.73001e-04
 Reference value :  1.73002e-04
 Reference value :  1.73003e-04
 Reference value :  1.73004e-04
 Reference value :  1.73006e-04
 Reference value :  1.73007e-04
 Reference value :  1.73010e-04
 Reference value :  1.73011e-04
 Reference value :  1.73013e-04
 Reference value :  1.73014e-04
 Reference value :  1.73018e-04
 Reference value :  1.73021e-04
 Reference value :  1.73044e-04
 Reference value :  1.73054e-04
 Reference value :  1.73065e-04
 Reference value :  1.73097e-04
 Reference value :  1.73250e-04
 Reference value :  1.73250e-04
 Reference value :  1.73250e-04
 Reference value :  1.73250e-04
 Reference value :  1.73251e-04
 Reference value :  1.73253e-04
 Reference value :  1.73254e-04
 Reference value :  1.73257e-04
 Reference value :  1.73265e-04
 Reference value :  1.73407e-04
 Reference value :  1.73500e-04
 Reference value :  1.73500e-04
 Reference value :  1.73500e-04
 Reference value :  1.73501e-04
 Reference value :  1.73502e-04
 Reference value :  1.73503e-04
 Reference value :  1.73504e-04
 Reference value :  1.73506e-04
 Reference value :  1.73508e-04
 Reference value :  1.73510e-04
 Reference value :  1.73513e-04
 Reference value :  1.73545e-04
 Reference value :  1.73750e-04
 Reference value :  1.73750e-04
 Reference value :  1.73751e-04
 Reference value :  1.73752e-04
 Reference value :  1.73754e-04
 Reference value :  1.73755e-04
 Reference value :  1.73759e-04
 Reference value :  1.73784e-04
 Reference value :  1.74000e-04
 Reference value :  1.74000e-04
 Reference value :  1.74000e-04
 Reference value :  1.74001e-04
 Reference value :  1.74002e-04
 Reference value :  1.74004e-04
 Reference value :  1.74005e-04
 Reference value :  1.74006e-04
 Reference value :  1.74008e-04
 Reference value :  1.74011e-04
 Reference value :  1.74013e-04
 Reference value :  1.74015e-04
 Reference value :  1.74017e-04
 Reference value :  1.74021e-04
 Reference value :  1.74030e-04
 Reference value :  1.74043e-04
 Reference value :  1.74053e-04
 Reference value :  1.74064e-04
 Reference value :  1.74082e-04
 Reference value :  1.74199e-04
 Reference value :  1.74250e-04
 Reference value :  1.74250e-04
 Reference value :  1.74250e-04
 Reference value :  1.74251e-04
 Reference value :  1.74253e-04
 Reference value :  1.74254e-04
 Reference value :  1.74256e-04
 Reference value :  1.74259e-04
 Reference value :  1.74285e-04
 Reference value :  1.74401e-04
 Reference value :  1.74500e-04
 Reference value :  1.74500e-04
 Reference value :  1.74500e-04
 Reference value :  1.74501e-04
 Reference value :  1.74502e-04
 Reference value :  1.74503e-04
 Reference value :  1.74504e-04
 Reference value :  1.74506e-04
 Reference value :  1.74507e-04
 Reference value :  1.74509e-04
 Reference value :  1.74512e-04
 Reference value :  1.74548e-04
 Reference value :  1.74750e-04
 Reference value :  1.74750e-04
 Reference value :  1.74750e-04
 Reference value :  1.74751e-04
 Reference value :  1.74753e-04
 Reference value :  1.74754e-04
 Reference value :  1.74757e-04
 Reference value :  1.74758e-04
 Reference value :  1.74762e-04
 Reference value :  1.74775e-04
 Reference value :  1.74848e-04
 Reference value :  1.75000e-04
 Reference value :  1.75000e-04
 Reference value :  1.75000e-04
 Reference value :  1.75000e-04
 Reference value :  1.75001e-04
 Reference value :  1.75002e-04
 Reference value :  1.75003e-04
 Reference value :  1.75004e-04
 Reference value :  1.75006e-04
 Reference value :  1.75007e-04
 Reference value :  1.75008e-04
 Reference value :  1.75011e-04
 Reference value :  1.75013e-04
 Reference value :  1.75014e-04
 Reference value :  1.75016e-04
 Reference value :  1.75019e-04
 Reference value :  1.75021e-04
 Reference value :  1.75025e-04
 Reference value :  1.75028e-04
 Reference value :  1.75030e-04
 Reference value :  1.75033e-04
 Reference value :  1.75043e-04
 Reference value :  1.75070e-04
 Reference value :  1.75169e-04
 Reference value :  1.75250e-04
 Reference value :  1.75250e-04
 Reference value :  1.75250e-04
 Reference value :  1.75250e-04
 Reference value :  1.75251e-04
 Reference value :  1.75252e-04
 Reference value :  1.75254e-04
 Reference value :  1.75254e-04
 Reference value :  1.75256e-04
 Reference value :  1.75258e-04
 Reference value :  1.75265e-04
 Reference value :  1.75284e-04
 Reference value :  1.75340e-04
 Reference value :  1.75500e-04
 Reference value :  1.75500e-04
 Reference value :  1.75500e-04
 Reference value :  1.75500e-04
 Reference value :  1.75501e-04
 Reference value :  1.75501e-04
 Reference value :  1.75502e-04
 Reference value :  1.75503e-04
 Reference value :  1.75504e-04
 Reference value :  1.75506e-04
 Reference value :  1.75508e-04
 Reference value :  1.75512e-04
 Reference value :  1.75529e-04
 Reference value :  1.75750e-04
 Reference value :  1.75750e-04
 Reference value :  1.75750e-04
 Reference value :  1.75750e-04
 Reference value :  1.75751e-04
 Reference value :  1.75751e-04
 Reference value :  1.75752e-04
 Reference value :  1.75754e-04
 Reference value :  1.75755e-04
 Reference value :  1.75757e-04
 Reference value :  1.75761e-04
 Reference value :  1.75784e-04
 Reference value :  1.75840e-04
 Reference value :  1.76000e-04
 Reference value :  1.76000e-04
 Reference value :  1.76000e-04
 Reference value :  1.76000e-04
 Reference value :  1.76001e-04
 Reference value :  1.76002e-04
 Reference value :  1.76004e-04
 Reference value :  1.76005e-04
 Reference value :  1.76006e-04
 Reference value :  1.76007e-04
 Reference value :  1.76010e-04
 Reference value :  1.76013e-04
 Reference value :  1.76014e-04
 Reference value :  1.76016e-04
 Reference value :  1.76017e-04
 Reference value :  1.76021e-04
 Reference value :  1.76031e-04
 Reference value :  1.76043e-04
 Reference value :  1.76055e-04
 Reference value :  1.76067e-04
 Reference value :  1.76104e-04
 Reference value :  1.76202e-04
 Reference value :  1.76250e-04
 Reference value :  1.76250e-04
 Reference value :  1.76250e-04
 Reference value :  1.76251e-04
 Reference value :  1.76252e-04
 Reference value :  1.76254e-04
 Reference value :  1.76256e-04
 Reference value :  1.76259e-04
 Reference value :  1.76285e-04
 Reference value :  1.76398e-04
 Reference value :  1.76493e-04
 Reference value :  1.76500e-04
 Reference value :  1.76500e-04
 Reference value :  1.76500e-04
 Reference value :  1.76501e-04
 Reference value :  1.76502e-04
 Reference value :  1.76504e-04
 Reference value :  1.76507e-04
 Reference value :  1.76508e-04
 Reference value :  1.76509e-04
 Reference value :  1.76511e-04
 Reference value :  1.76515e-04
 Reference value :  1.76525e-04
 Reference value :  1.76554e-04
 Reference value :  1.76645e-04
 Reference value :  1.76750e-04
 Reference value :  1.76750e-04
 Reference value :  1.76750e-04
 Reference value :  1.76751e-04
 Reference value :  1.76752e-04
 Reference value :  1.76754e-04
 Reference value :  1.76755e-04
 Reference value :  1.76758e-04
 Reference value :  1.76765e-04
 Reference value :  1.76805e-04
 Reference value :  1.77000e-04
 Reference value :  1.77000e-04
 Reference value :  1.77000e-04
 Reference value :  1.77000e-04
 Reference value :  1.77001e-04
 Reference value :  1.77002e-04
 Reference value :  1.77003e-04
 Reference value :  1.77004e-04
 Reference value :  1.77006e-04
 Reference value :  1.77007e-04
 Reference value :  1.77011e-04
 Reference value :  1.77014e-04
 Reference value :  1.77016e-04
 Reference value :  1.77017e-04
 Reference value :  1.77018e-04
 Reference value :  1.77021e-04
 Reference value :  1.77025e-04
 Reference value :  1.77035e-04
 Reference value :  1.77038e-04
 Reference value :  1.77046e-04
 Reference value :  1.77061e-04
 Reference value :  1.77149e-04
 Reference value :  1.77250e-04
 Reference value :  1.77250e-04
 Reference value :  1.77251e-04
 Reference value :  1.77252e-04
 Reference value :  1.77253e-04
 Reference value :  1.77254e-04
 Reference value :  1.77257e-04
 Reference value :  1.77262e-04
 Reference value :  1.77305e-04
 Reference value :  1.77500e-04
 Reference value :  1.77500e-04
 Reference value :  1.77500e-04
 Reference value :  1.77500e-04
 Reference value :  1.77501e-04
 Reference value :  1.77502e-04
 Reference value :  1.77503e-04
 Reference value :  1.77505e-04
 Reference value :  1.77507e-04
 Reference value :  1.77507e-04
 Reference value :  1.77509e-04
 Reference value :  1.77512e-04
 Reference value :  1.77547e-04
 Reference value :  1.77750e-04
 Reference value :  1.77750e-04
 Reference value :  1.77750e-04
 Reference value :  1.77751e-04
 Reference value :  1.77752e-04
 Reference value :  1.77753e-04
 Reference value :  1.77754e-04
 Reference value :  1.77756e-04
 Reference value :  1.77758e-04
 Reference value :  1.77759e-04
 Reference value :  1.77765e-04
 Reference value :  1.77787e-04
 Reference value :  1.77923e-04
 Reference value :  1.78000e-04
 Reference value :  1.78000e-04
 Reference value :  1.78000e-04
 Reference value :  1.78000e-04
 Reference value :  1.78001e-04
 Reference value :  1.78002e-04
 Reference value :  1.78003e-04
 Reference value :  1.78004e-04
 Reference value :  1.78006e-04
 Reference value :  1.78007e-04
 Reference value :  1.78009e-04
 Reference value :  1.78012e-04
 Reference value :  1.78020e-04
 Reference value :  1.78050e-04
 Reference value :  1.78061e-04
 Reference value :  1.78070e-04
 Reference value :  1.78104e-04
 Reference value :  1.78157e-04
 Reference value :  1.78250e-04
 Reference value :  1.78250e-04
 Reference value :  1.78251e-04
 Reference value :  1.78252e-04
 Reference value :  1.78254e-04
 Reference value :  1.78258e-04
 Reference value :  1.78271e-04
 Reference value :  1.78496e-04
No. of Data Rows : 26070
ngspice-44 done
