
Note: Compatibility modes selected: hs a


Circuit: ** sch_path: /home/audrey/cace/sar-adc-using-sky130-pdk/runs/run_2025-09-09_12-30-42/parameters/power/run_1/power_consumption.sch

option SCALE: Scale is set to 1e-06 for instance and model parameters
option SCALE: Scale is set to 1e-06 for instance and model parameters
option SCALE: Scale is set to 1e-06 for instance and model parameters
option SCALE: Scale is set to 1e-06 for instance and model parameters
Doing analysis at TEMP = 27.000000 and TNOM = 27.000000

Using KLU as Direct Linear Solver
 Reference value :  0.00000e+00
 Reference value :  4.00000e-12
 Reference value :  3.20000e-11
 Reference value :  1.00000e-10
 Reference value :  1.44800e-10
 Reference value :  2.98400e-10
 Reference value :  7.06855e-10
 Reference value :  1.38418e-09
 Reference value :  1.76988e-09
 Reference value :  2.51841e-09
 Reference value :  3.35165e-09
 Reference value :  4.22531e-09
 Reference value :  5.42580e-09
 Reference value :  7.03095e-09
 Reference value :  8.73171e-09
 Reference value :  1.04426e-08
 Reference value :  1.18862e-08
 Reference value :  1.54255e-08
 Reference value :  1.72954e-08
 Reference value :  2.09309e-08
 Reference value :  2.19576e-08
 Reference value :  2.40644e-08
 Reference value :  2.91679e-08
 Reference value :  3.97662e-08
 Reference value :  5.85689e-08
 Reference value :  1.53430e-07
 Reference value :  2.09356e-07
 Reference value :  2.50100e-07
 Reference value :  2.50130e-07
 Reference value :  2.50200e-07
 Reference value :  2.50220e-07
 Reference value :  2.50299e-07
 Reference value :  2.50521e-07
 Reference value :  2.50925e-07
 Reference value :  2.51641e-07
 Reference value :  2.52611e-07
 Reference value :  2.53779e-07
 Reference value :  2.54915e-07
 Reference value :  2.56440e-07
 Reference value :  2.61849e-07
 Reference value :  2.76752e-07
 Reference value :  3.57660e-07
 Reference value :  5.00010e-07
 Reference value :  5.00100e-07
 Reference value :  5.00156e-07
 Reference value :  5.00338e-07
 Reference value :  5.00827e-07
 Reference value :  5.01527e-07
 Reference value :  5.02329e-07
 Reference value :  5.02809e-07
 Reference value :  5.03886e-07
 Reference value :  5.06438e-07
 Reference value :  5.08781e-07
 Reference value :  5.11225e-07
 Reference value :  5.12520e-07
 Reference value :  5.15657e-07
 Reference value :  5.20820e-07
 Reference value :  5.82523e-07
 Reference value :  7.50110e-07
 Reference value :  7.50200e-07
 Reference value :  7.50256e-07
 Reference value :  7.50688e-07
 Reference value :  7.51397e-07
 Reference value :  7.52295e-07
 Reference value :  7.53445e-07
 Reference value :  7.54482e-07
 Reference value :  7.55766e-07
 Reference value :  7.57442e-07
 Reference value :  7.59529e-07
 Reference value :  7.66983e-07
 Reference value :  8.15923e-07
 Reference value :  1.00000e-06
 Reference value :  1.00007e-06
 Reference value :  1.00012e-06
 Reference value :  1.00034e-06
 Reference value :  1.00119e-06
 Reference value :  1.00158e-06
 Reference value :  1.00242e-06
 Reference value :  1.00342e-06
 Reference value :  1.00389e-06
 Reference value :  1.00484e-06
 Reference value :  1.00663e-06
 Reference value :  1.00757e-06
 Reference value :  1.00933e-06
 Reference value :  1.01018e-06
 Reference value :  1.01114e-06
 Reference value :  1.01269e-06
 Reference value :  1.01353e-06
 Reference value :  1.01528e-06
 Reference value :  1.01622e-06
 Reference value :  1.02039e-06
 Reference value :  1.03668e-06
 Reference value :  1.05136e-06
 Reference value :  1.12402e-06
 Reference value :  1.16124e-06
 Reference value :  1.18991e-06
 Reference value :  1.20680e-06
 Reference value :  1.23672e-06
 Reference value :  1.25013e-06
 Reference value :  1.25020e-06
 Reference value :  1.25026e-06
 Reference value :  1.25045e-06
 Reference value :  1.25098e-06
 Reference value :  1.25140e-06
 Reference value :  1.25230e-06
 Reference value :  1.25346e-06
 Reference value :  1.25532e-06
 Reference value :  1.25757e-06
 Reference value :  1.26194e-06
 Reference value :  1.32130e-06
 Reference value :  1.38462e-06
 Reference value :  1.50001e-06
 Reference value :  1.50003e-06
 Reference value :  1.50010e-06
 Reference value :  1.50016e-06
 Reference value :  1.50052e-06
 Reference value :  1.50083e-06
 Reference value :  1.50158e-06
 Reference value :  1.50289e-06
 Reference value :  1.50399e-06
 Reference value :  1.50552e-06
 Reference value :  1.50616e-06
 Reference value :  1.50771e-06
 Reference value :  1.50865e-06
 Reference value :  1.50956e-06
 Reference value :  1.51556e-06
 Reference value :  1.54821e-06
 Reference value :  1.65733e-06
 Reference value :  1.75013e-06
 Reference value :  1.75021e-06
 Reference value :  1.75032e-06
 Reference value :  1.75098e-06
 Reference value :  1.75186e-06
 Reference value :  1.75299e-06
 Reference value :  1.75345e-06
 Reference value :  1.75449e-06
 Reference value :  1.75580e-06
 Reference value :  1.76365e-06
 Reference value :  1.85846e-06
 Reference value :  2.00003e-06
 Reference value :  2.00011e-06
 Reference value :  2.00022e-06
 Reference value :  2.00034e-06
 Reference value :  2.00052e-06
 Reference value :  2.00119e-06
 Reference value :  2.00201e-06
 Reference value :  2.00289e-06
 Reference value :  2.00341e-06
 Reference value :  2.00500e-06
 Reference value :  2.00709e-06
 Reference value :  2.00996e-06
 Reference value :  2.01120e-06
 Reference value :  2.01223e-06
 Reference value :  2.01428e-06
 Reference value :  2.01525e-06
 Reference value :  2.01912e-06
 Reference value :  2.02074e-06
 Reference value :  2.02872e-06
 Reference value :  2.04529e-06
 Reference value :  2.05748e-06
 Reference value :  2.06865e-06
 Reference value :  2.07670e-06
 Reference value :  2.08446e-06
 Reference value :  2.09085e-06
 Reference value :  2.10381e-06
 Reference value :  2.12473e-06
 Reference value :  2.20951e-06
 Reference value :  2.25013e-06
 Reference value :  2.25017e-06
 Reference value :  2.25021e-06
 Reference value :  2.25026e-06
 Reference value :  2.25069e-06
 Reference value :  2.25140e-06
 Reference value :  2.25186e-06
 Reference value :  2.25299e-06
 Reference value :  2.25344e-06
 Reference value :  2.25527e-06
 Reference value :  2.25731e-06
 Reference value :  2.26494e-06
 Reference value :  2.27189e-06
 Reference value :  2.48035e-06
 Reference value :  2.50003e-06
 Reference value :  2.50010e-06
 Reference value :  2.50012e-06
 Reference value :  2.50022e-06
 Reference value :  2.50034e-06
 Reference value :  2.50083e-06
 Reference value :  2.50154e-06
 Reference value :  2.50282e-06
 Reference value :  2.50388e-06
 Reference value :  2.50536e-06
 Reference value :  2.50598e-06
 Reference value :  2.50664e-06
 Reference value :  2.50749e-06
 Reference value :  2.50924e-06
 Reference value :  2.51029e-06
 Reference value :  2.51681e-06
 Reference value :  2.54876e-06
 Reference value :  2.58180e-06
 Reference value :  2.75011e-06
 Reference value :  2.75017e-06
 Reference value :  2.75021e-06
 Reference value :  2.75045e-06
 Reference value :  2.75069e-06
 Reference value :  2.75140e-06
 Reference value :  2.75229e-06
 Reference value :  2.75299e-06
 Reference value :  2.75344e-06
 Reference value :  2.75448e-06
 Reference value :  2.75580e-06
 Reference value :  2.75661e-06
 Reference value :  2.75752e-06
 Reference value :  2.75965e-06
 Reference value :  2.76747e-06
 Reference value :  2.82048e-06
 Reference value :  3.00000e-06
 Reference value :  3.00007e-06
 Reference value :  3.00012e-06
 Reference value :  3.00022e-06
 Reference value :  3.00034e-06
 Reference value :  3.00119e-06
 Reference value :  3.00158e-06
 Reference value :  3.00201e-06
 Reference value :  3.00242e-06
 Reference value :  3.00290e-06
 Reference value :  3.00390e-06
 Reference value :  3.00484e-06
 Reference value :  3.00534e-06
 Reference value :  3.00664e-06
 Reference value :  3.00758e-06
 Reference value :  3.00841e-06
 Reference value :  3.01016e-06
 Reference value :  3.01112e-06
 Reference value :  3.01191e-06
 Reference value :  3.01357e-06
 Reference value :  3.01633e-06
 Reference value :  3.01912e-06
 Reference value :  3.03033e-06
 Reference value :  3.03941e-06
 Reference value :  3.06184e-06
 Reference value :  3.06941e-06
 Reference value :  3.08173e-06
 Reference value :  3.09188e-06
 Reference value :  3.11627e-06
 Reference value :  3.15762e-06
 Reference value :  3.25010e-06
 Reference value :  3.25017e-06
 Reference value :  3.25022e-06
 Reference value :  3.25026e-06
 Reference value :  3.25032e-06
 Reference value :  3.25069e-06
 Reference value :  3.25140e-06
 Reference value :  3.25229e-06
 Reference value :  3.25299e-06
 Reference value :  3.25345e-06
 Reference value :  3.25399e-06
 Reference value :  3.25461e-06
 Reference value :  3.25742e-06
 Reference value :  3.26164e-06
 Reference value :  3.28689e-06
 Reference value :  3.37344e-06
 Reference value :  3.50001e-06
 Reference value :  3.50003e-06
 Reference value :  3.50010e-06
 Reference value :  3.50012e-06
 Reference value :  3.50022e-06
 Reference value :  3.50034e-06
 Reference value :  3.50052e-06
 Reference value :  3.50083e-06
 Reference value :  3.50119e-06
 Reference value :  3.50158e-06
 Reference value :  3.50201e-06
 Reference value :  3.50290e-06
 Reference value :  3.50342e-06
 Reference value :  3.50474e-06
 Reference value :  3.50553e-06
 Reference value :  3.50616e-06
 Reference value :  3.50771e-06
 Reference value :  3.50956e-06
 Reference value :  3.51086e-06
 Reference value :  3.51555e-06
 Reference value :  3.52998e-06
 Reference value :  3.58480e-06
 Reference value :  3.75011e-06
 Reference value :  3.75013e-06
 Reference value :  3.75020e-06
 Reference value :  3.75026e-06
 Reference value :  3.75032e-06
 Reference value :  3.75069e-06
 Reference value :  3.75098e-06
 Reference value :  3.75140e-06
 Reference value :  3.75229e-06
 Reference value :  3.75299e-06
 Reference value :  3.75345e-06
 Reference value :  3.75448e-06
 Reference value :  3.75502e-06
 Reference value :  3.75579e-06
 Reference value :  3.75660e-06
 Reference value :  3.76027e-06
 Reference value :  3.78233e-06
 Reference value :  3.85726e-06
 Reference value :  3.95717e-06
 Reference value :  4.00000e-06
 Reference value :  4.00003e-06
 Reference value :  4.00007e-06
 Reference value :  4.00010e-06
 Reference value :  4.00011e-06
 Reference value :  4.00016e-06
 Reference value :  4.00052e-06
 Reference value :  4.00083e-06
 Reference value :  4.00119e-06
 Reference value :  4.00158e-06
 Reference value :  4.00242e-06
 Reference value :  4.00289e-06
 Reference value :  4.00341e-06
 Reference value :  4.00396e-06
 Reference value :  4.00500e-06
 Reference value :  4.00554e-06
 Reference value :  4.00847e-06
 Reference value :  4.01120e-06
 Reference value :  4.01223e-06
 Reference value :  4.01428e-06
 Reference value :  4.01524e-06
 Reference value :  4.01625e-06
 Reference value :  4.01736e-06
 Reference value :  4.01911e-06
 Reference value :  4.02389e-06
 Reference value :  4.04039e-06
 Reference value :  4.05198e-06
 Reference value :  4.05671e-06
 Reference value :  4.06161e-06
 Reference value :  4.06711e-06
 Reference value :  4.08002e-06
 Reference value :  4.09808e-06
 Reference value :  4.11212e-06
 Reference value :  4.22166e-06
 Reference value :  4.25011e-06
 Reference value :  4.25020e-06
 Reference value :  4.25022e-06
 Reference value :  4.25032e-06
 Reference value :  4.25045e-06
 Reference value :  4.25069e-06
 Reference value :  4.25098e-06
 Reference value :  4.25140e-06
 Reference value :  4.25186e-06
 Reference value :  4.25299e-06
 Reference value :  4.25343e-06
 Reference value :  4.25394e-06
 Reference value :  4.25526e-06
 Reference value :  4.25595e-06
 Reference value :  4.25878e-06
 Reference value :  4.26147e-06
 Reference value :  4.26494e-06
 Reference value :  4.28573e-06
 Reference value :  4.47979e-06
 Reference value :  4.50000e-06
 Reference value :  4.50003e-06
 Reference value :  4.50007e-06
 Reference value :  4.50010e-06
 Reference value :  4.50011e-06
 Reference value :  4.50016e-06
 Reference value :  4.50022e-06
 Reference value :  4.50083e-06
 Reference value :  4.50119e-06
 Reference value :  4.50154e-06
 Reference value :  4.50235e-06
 Reference value :  4.50282e-06
 Reference value :  4.50333e-06
 Reference value :  4.50388e-06
 Reference value :  4.50464e-06
 Reference value :  4.50536e-06
 Reference value :  4.50598e-06
 Reference value :  4.50664e-06
 Reference value :  4.50749e-06
 Reference value :  4.50839e-06
 Reference value :  4.50924e-06
 Reference value :  4.51029e-06
 Reference value :  4.51144e-06
 Reference value :  4.53189e-06
 Reference value :  4.54807e-06
 Reference value :  4.64511e-06
 Reference value :  4.75010e-06
 Reference value :  4.75011e-06
 Reference value :  4.75020e-06
 Reference value :  4.75022e-06
 Reference value :  4.75032e-06
 Reference value :  4.75069e-06
 Reference value :  4.75098e-06
 Reference value :  4.75140e-06
 Reference value :  4.75229e-06
 Reference value :  4.75299e-06
 Reference value :  4.75344e-06
 Reference value :  4.75448e-06
 Reference value :  4.75502e-06
 Reference value :  4.75579e-06
 Reference value :  4.75661e-06
 Reference value :  4.75836e-06
 Reference value :  4.75964e-06
 Reference value :  4.76105e-06
 Reference value :  4.77491e-06
 Reference value :  4.78991e-06
 Reference value :  4.81993e-06
 Reference value :  5.00000e-06
 Reference value :  5.00000e-06
 Reference value :  5.00002e-06
 Reference value :  5.00004e-06
 Reference value :  5.00010e-06
 Reference value :  5.00011e-06
 Reference value :  5.00012e-06
 Reference value :  5.00014e-06
 Reference value :  5.00028e-06
 Reference value :  5.00042e-06
 Reference value :  5.00105e-06
 Reference value :  5.00180e-06
 Reference value :  5.00272e-06
 Reference value :  5.00367e-06
 Reference value :  5.00417e-06
 Reference value :  5.00460e-06
 Reference value :  5.00507e-06
 Reference value :  5.00556e-06
 Reference value :  5.00625e-06
 Reference value :  5.00708e-06
 Reference value :  5.00821e-06
 Reference value :  5.00901e-06
 Reference value :  5.01091e-06
 Reference value :  5.01199e-06
 Reference value :  5.01305e-06
 Reference value :  5.01401e-06
 Reference value :  5.01491e-06
 Reference value :  5.01588e-06
 Reference value :  5.01693e-06
 Reference value :  5.01828e-06
 Reference value :  5.02234e-06
 Reference value :  5.02600e-06
 Reference value :  5.02943e-06
 Reference value :  5.03329e-06
 Reference value :  5.03597e-06
 Reference value :  5.04052e-06
 Reference value :  5.04302e-06
 Reference value :  5.05901e-06
 Reference value :  5.08538e-06
 Reference value :  5.11014e-06
 Reference value :  5.21124e-06
 Reference value :  5.25010e-06
 Reference value :  5.25013e-06
 Reference value :  5.25017e-06
 Reference value :  5.25021e-06
 Reference value :  5.25022e-06
 Reference value :  5.25026e-06
 Reference value :  5.25045e-06
 Reference value :  5.25069e-06
 Reference value :  5.25098e-06
 Reference value :  5.25139e-06
 Reference value :  5.25185e-06
 Reference value :  5.25229e-06
 Reference value :  5.25298e-06
 Reference value :  5.25344e-06
 Reference value :  5.25397e-06
 Reference value :  5.25457e-06
 Reference value :  5.25519e-06
 Reference value :  5.25594e-06
 Reference value :  5.25734e-06
 Reference value :  5.25878e-06
 Reference value :  5.26148e-06
 Reference value :  5.26495e-06
 Reference value :  5.27187e-06
 Reference value :  5.28571e-06
 Reference value :  5.31340e-06
 Reference value :  5.36878e-06
 Reference value :  5.47954e-06
 Reference value :  5.50000e-06
 Reference value :  5.50001e-06
 Reference value :  5.50003e-06
 Reference value :  5.50007e-06
 Reference value :  5.50010e-06
 Reference value :  5.50011e-06
 Reference value :  5.50012e-06
 Reference value :  5.50016e-06
 Reference value :  5.50022e-06
 Reference value :  5.50034e-06
 Reference value :  5.50052e-06
 Reference value :  5.50083e-06
 Reference value :  5.50119e-06
 Reference value :  5.50158e-06
 Reference value :  5.50201e-06
 Reference value :  5.50242e-06
 Reference value :  5.50290e-06
 Reference value :  5.50342e-06
 Reference value :  5.50399e-06
 Reference value :  5.50474e-06
 Reference value :  5.50552e-06
 Reference value :  5.50616e-06
 Reference value :  5.50689e-06
 Reference value :  5.50771e-06
 Reference value :  5.50865e-06
 Reference value :  5.50956e-06
 Reference value :  5.51086e-06
 Reference value :  5.51250e-06
 Reference value :  5.51553e-06
 Reference value :  5.52058e-06
 Reference value :  5.52980e-06
 Reference value :  5.54781e-06
 Reference value :  5.58383e-06
 Reference value :  5.65586e-06
 Reference value :  5.75010e-06
 Reference value :  5.75011e-06
 Reference value :  5.75013e-06
 Reference value :  5.75017e-06
 Reference value :  5.75020e-06
 Reference value :  5.75021e-06
 Reference value :  5.75022e-06
 Reference value :  5.75026e-06
 Reference value :  5.75032e-06
 Reference value :  5.75045e-06
 Reference value :  5.75069e-06
 Reference value :  5.75098e-06
 Reference value :  5.75140e-06
 Reference value :  5.75186e-06
 Reference value :  5.75229e-06
 Reference value :  5.75299e-06
 Reference value :  5.75344e-06
 Reference value :  5.75397e-06
 Reference value :  5.75448e-06
 Reference value :  5.75502e-06
 Reference value :  5.75578e-06
 Reference value :  5.75658e-06
 Reference value :  5.75819e-06
 Reference value :  5.76023e-06
 Reference value :  5.76352e-06
 Reference value :  5.76966e-06
 Reference value :  5.78194e-06
 Reference value :  5.80651e-06
 Reference value :  5.85565e-06
 Reference value :  5.95392e-06
 Reference value :  6.00000e-06
 Reference value :  6.00001e-06
 Reference value :  6.00003e-06
 Reference value :  6.00007e-06
 Reference value :  6.00010e-06
 Reference value :  6.00011e-06
 Reference value :  6.00012e-06
 Reference value :  6.00016e-06
 Reference value :  6.00022e-06
 Reference value :  6.00034e-06
 Reference value :  6.00052e-06
 Reference value :  6.00083e-06
 Reference value :  6.00119e-06
 Reference value :  6.00158e-06
 Reference value :  6.00201e-06
 Reference value :  6.00242e-06
 Reference value :  6.00289e-06
 Reference value :  6.00341e-06
 Reference value :  6.00396e-06
 Reference value :  6.00450e-06
 Reference value :  6.00500e-06
 Reference value :  6.00554e-06
 Reference value :  6.00632e-06
 Reference value :  6.00710e-06
 Reference value :  6.00847e-06
 Reference value :  6.00997e-06
 Reference value :  6.01120e-06
 Reference value :  6.01223e-06
 Reference value :  6.01322e-06
 Reference value :  6.01428e-06
 Reference value :  6.01526e-06
 Reference value :  6.01626e-06
 Reference value :  6.01739e-06
 Reference value :  6.01912e-06
 Reference value :  6.02075e-06
 Reference value :  6.02391e-06
 Reference value :  6.02869e-06
 Reference value :  6.03610e-06
 Reference value :  6.04325e-06
 Reference value :  6.05121e-06
 Reference value :  6.05668e-06
 Reference value :  6.06202e-06
 Reference value :  6.06910e-06
 Reference value :  6.07629e-06
 Reference value :  6.08500e-06
 Reference value :  6.09406e-06
 Reference value :  6.10360e-06
 Reference value :  6.11771e-06
 Reference value :  6.13843e-06
 Reference value :  6.16860e-06
 Reference value :  6.21431e-06
 Reference value :  6.25010e-06
 Reference value :  6.25011e-06
 Reference value :  6.25013e-06
 Reference value :  6.25017e-06
 Reference value :  6.25020e-06
 Reference value :  6.25021e-06
 Reference value :  6.25022e-06
 Reference value :  6.25026e-06
 Reference value :  6.25032e-06
 Reference value :  6.25045e-06
 Reference value :  6.25069e-06
 Reference value :  6.25098e-06
 Reference value :  6.25140e-06
 Reference value :  6.25186e-06
 Reference value :  6.25229e-06
 Reference value :  6.25299e-06
 Reference value :  6.25343e-06
 Reference value :  6.25394e-06
 Reference value :  6.25455e-06
 Reference value :  6.25526e-06
 Reference value :  6.25595e-06
 Reference value :  6.25732e-06
 Reference value :  6.25878e-06
 Reference value :  6.26147e-06
 Reference value :  6.26494e-06
 Reference value :  6.27187e-06
 Reference value :  6.28573e-06
 Reference value :  6.31346e-06
 Reference value :  6.36891e-06
 Reference value :  6.47981e-06
 Reference value :  6.50000e-06
 Reference value :  6.50001e-06
 Reference value :  6.50003e-06
 Reference value :  6.50007e-06
 Reference value :  6.50010e-06
 Reference value :  6.50011e-06
 Reference value :  6.50012e-06
 Reference value :  6.50016e-06
 Reference value :  6.50022e-06
 Reference value :  6.50034e-06
 Reference value :  6.50052e-06
 Reference value :  6.50083e-06
 Reference value :  6.50119e-06
 Reference value :  6.50154e-06
 Reference value :  6.50195e-06
 Reference value :  6.50235e-06
 Reference value :  6.50282e-06
 Reference value :  6.50333e-06
 Reference value :  6.50388e-06
 Reference value :  6.50464e-06
 Reference value :  6.50536e-06
 Reference value :  6.50598e-06
 Reference value :  6.50664e-06
 Reference value :  6.50749e-06
 Reference value :  6.50839e-06
 Reference value :  6.50924e-06
 Reference value :  6.51028e-06
 Reference value :  6.51143e-06
 Reference value :  6.51360e-06
 Reference value :  6.51669e-06
 Reference value :  6.52220e-06
 Reference value :  6.53170e-06
 Reference value :  6.54768e-06
 Reference value :  6.57965e-06
 Reference value :  6.64357e-06
 Reference value :  6.75010e-06
 Reference value :  6.75011e-06
 Reference value :  6.75013e-06
 Reference value :  6.75017e-06
 Reference value :  6.75020e-06
 Reference value :  6.75021e-06
 Reference value :  6.75022e-06
 Reference value :  6.75026e-06
 Reference value :  6.75032e-06
 Reference value :  6.75045e-06
 Reference value :  6.75069e-06
 Reference value :  6.75098e-06
 Reference value :  6.75139e-06
 Reference value :  6.75186e-06
 Reference value :  6.75229e-06
 Reference value :  6.75299e-06
 Reference value :  6.75344e-06
 Reference value :  6.75397e-06
 Reference value :  6.75448e-06
 Reference value :  6.75502e-06
 Reference value :  6.75579e-06
 Reference value :  6.75661e-06
 Reference value :  6.75750e-06
 Reference value :  6.75835e-06
 Reference value :  6.75963e-06
 Reference value :  6.76104e-06
 Reference value :  6.76364e-06
 Reference value :  6.76738e-06
 Reference value :  6.77485e-06
 Reference value :  6.78979e-06
 Reference value :  6.81967e-06
 Reference value :  6.87942e-06
 Reference value :  6.99894e-06
 Reference value :  7.00000e-06
 Reference value :  7.00001e-06
 Reference value :  7.00003e-06
 Reference value :  7.00007e-06
 Reference value :  7.00010e-06
 Reference value :  7.00011e-06
 Reference value :  7.00012e-06
 Reference value :  7.00016e-06
 Reference value :  7.00022e-06
 Reference value :  7.00034e-06
 Reference value :  7.00052e-06
 Reference value :  7.00083e-06
 Reference value :  7.00119e-06
 Reference value :  7.00158e-06
 Reference value :  7.00201e-06
 Reference value :  7.00242e-06
 Reference value :  7.00290e-06
 Reference value :  7.00342e-06
 Reference value :  7.00390e-06
 Reference value :  7.00440e-06
 Reference value :  7.00484e-06
 Reference value :  7.00534e-06
 Reference value :  7.00593e-06
 Reference value :  7.00664e-06
 Reference value :  7.00758e-06
 Reference value :  7.00850e-06
 Reference value :  7.00933e-06
 Reference value :  7.01016e-06
 Reference value :  7.01112e-06
 Reference value :  7.01188e-06
 Reference value :  7.01262e-06
 Reference value :  7.01345e-06
 Reference value :  7.01427e-06
 Reference value :  7.01516e-06
 Reference value :  7.01610e-06
 Reference value :  7.01703e-06
 Reference value :  7.01848e-06
 Reference value :  7.02004e-06
 Reference value :  7.02268e-06
 Reference value :  7.02727e-06
 Reference value :  7.03366e-06
 Reference value :  7.04524e-06
 Reference value :  7.06371e-06
 Reference value :  7.08889e-06
 Reference value :  7.11460e-06
 Reference value :  7.13484e-06
 Reference value :  7.15457e-06
 Reference value :  7.17888e-06
 Reference value :  7.20393e-06
 Reference value :  7.24482e-06
 Reference value :  7.25010e-06
 Reference value :  7.25011e-06
 Reference value :  7.25013e-06
 Reference value :  7.25017e-06
 Reference value :  7.25020e-06
 Reference value :  7.25021e-06
 Reference value :  7.25022e-06
 Reference value :  7.25026e-06
 Reference value :  7.25032e-06
 Reference value :  7.25045e-06
 Reference value :  7.25069e-06
 Reference value :  7.25098e-06
 Reference value :  7.25140e-06
 Reference value :  7.25186e-06
 Reference value :  7.25229e-06
 Reference value :  7.25299e-06
 Reference value :  7.25345e-06
 Reference value :  7.25398e-06
 Reference value :  7.25460e-06
 Reference value :  7.25523e-06
 Reference value :  7.25597e-06
 Reference value :  7.25740e-06
 Reference value :  7.25887e-06
 Reference value :  7.26161e-06
 Reference value :  7.26518e-06
 Reference value :  7.27233e-06
 Reference value :  7.31520e-06
 Reference value :  7.37236e-06
 Reference value :  7.48668e-06
 Reference value :  7.50000e-06
 Reference value :  7.50003e-06
 Reference value :  7.50010e-06
 Reference value :  7.50012e-06
 Reference value :  7.50022e-06
 Reference value :  7.50034e-06
 Reference value :  7.50052e-06
 Reference value :  7.50083e-06
 Reference value :  7.50119e-06
 Reference value :  7.50158e-06
 Reference value :  7.50201e-06
 Reference value :  7.50290e-06
 Reference value :  7.50342e-06
 Reference value :  7.50474e-06
 Reference value :  7.50616e-06
 Reference value :  7.50689e-06
 Reference value :  7.50771e-06
 Reference value :  7.50956e-06
 Reference value :  7.51249e-06
 Reference value :  7.52052e-06
 Reference value :  7.54738e-06
 Reference value :  7.75010e-06
 Reference value :  7.75011e-06
 Reference value :  7.75013e-06
 Reference value :  7.75020e-06
 Reference value :  7.75021e-06
 Reference value :  7.75026e-06
 Reference value :  7.75045e-06
 Reference value :  7.75069e-06
 Reference value :  7.75098e-06
 Reference value :  7.75139e-06
 Reference value :  7.75229e-06
 Reference value :  7.75299e-06
 Reference value :  7.75344e-06
 Reference value :  7.75397e-06
 Reference value :  7.75448e-06
 Reference value :  7.75502e-06
 Reference value :  7.75579e-06
 Reference value :  7.75660e-06
 Reference value :  7.76026e-06
 Reference value :  7.76979e-06
 Reference value :  7.80706e-06
 Reference value :  7.95614e-06
 Reference value :  8.00001e-06
 Reference value :  8.00003e-06
 Reference value :  8.00007e-06
 Reference value :  8.00011e-06
 Reference value :  8.00016e-06
 Reference value :  8.00034e-06
 Reference value :  8.00083e-06
 Reference value :  8.00119e-06
 Reference value :  8.00158e-06
 Reference value :  8.00242e-06
 Reference value :  8.00289e-06
 Reference value :  8.00399e-06
 Reference value :  8.00452e-06
 Reference value :  8.00503e-06
 Reference value :  8.00558e-06
 Reference value :  8.00639e-06
 Reference value :  8.00717e-06
 Reference value :  8.00795e-06
 Reference value :  8.00885e-06
 Reference value :  8.01564e-06
 Reference value :  8.03667e-06
 Reference value :  8.12078e-06
 Reference value :  8.25010e-06
 Reference value :  8.25013e-06
 Reference value :  8.25020e-06
 Reference value :  8.25022e-06
 Reference value :  8.25032e-06
 Reference value :  8.25070e-06
 Reference value :  8.25139e-06
 Reference value :  8.25228e-06
 Reference value :  8.25298e-06
 Reference value :  8.25452e-06
 Reference value :  8.25535e-06
 Reference value :  8.25767e-06
 Reference value :  8.26625e-06
 Reference value :  8.29147e-06
 Reference value :  8.50000e-06
No. of Data Rows : 1252
ngspice-44 done
