
Note: Compatibility modes selected: hs a


Circuit: ** sch_path: /home/ece/cace/sar-adc-using-sky130-pdk/runs/run_2025-09-11_21-06-31/parameters/sndr/run_0/sndr_enob_fom.sch

option SCALE: Scale is set to 1e-06 for instance and model parameters
option SCALE: Scale is set to 1e-06 for instance and model parameters
option SCALE: Scale is set to 1e-06 for instance and model parameters
option SCALE: Scale is set to 1e-06 for instance and model parameters
Doing analysis at TEMP = 27.000000 and TNOM = 27.000000

Using KLU as Direct Linear Solver
Operating point simulation skipped by 'uic',
  now using transient initial conditions.
 Reference value :  1.00000e-12
 Reference value :  1.02772e-12
 Reference value :  1.08316e-12
 Reference value :  1.19404e-12
 Reference value :  1.33846e-12
 Reference value :  1.62729e-12
 Reference value :  2.20497e-12
 Reference value :  3.05053e-12
 Reference value :  3.95569e-12
 Reference value :  5.17254e-12
 Reference value :  6.90336e-12
 Reference value :  1.02199e-11
 Reference value :  1.39174e-11
 Reference value :  2.08132e-11
 Reference value :  2.76011e-11
 Reference value :  3.67061e-11
 Reference value :  4.77704e-11
 Reference value :  6.49073e-11
 Reference value :  8.51516e-11
 Reference value :  1.00000e-10
 Reference value :  1.01239e-10
 Reference value :  1.03717e-10
 Reference value :  1.08672e-10
 Reference value :  1.18583e-10
 Reference value :  1.38404e-10
 Reference value :  1.78047e-10
 Reference value :  2.57332e-10
 Reference value :  4.09139e-10
 Reference value :  5.73435e-10
 Reference value :  8.40966e-10
 Reference value :  1.20191e-09
 Reference value :  1.62808e-09
 Reference value :  2.28562e-09
 Reference value :  2.96037e-09
 Reference value :  4.03141e-09
 Reference value :  4.86225e-09
 Reference value :  5.73963e-09
 Reference value :  6.99797e-09
 Reference value :  8.16771e-09
 Reference value :  9.50926e-09
 Reference value :  1.04408e-08
 Reference value :  1.13296e-08
 Reference value :  1.22007e-08
 Reference value :  1.31799e-08
 Reference value :  1.51382e-08
 Reference value :  1.86401e-08
 Reference value :  2.23367e-08
 Reference value :  2.63151e-08
 Reference value :  2.98171e-08
 Reference value :  3.37025e-08
 Reference value :  3.70570e-08
 Reference value :  4.05481e-08
 Reference value :  4.54974e-08
 Reference value :  5.24895e-08
 Reference value :  6.34605e-08
 Reference value :  8.38712e-08
 Reference value :  1.15521e-07
 Reference value :  1.78822e-07
 Reference value :  2.50100e-07
 Reference value :  2.50110e-07
 Reference value :  2.50130e-07
 Reference value :  2.50170e-07
 Reference value :  2.50200e-07
 Reference value :  2.50201e-07
 Reference value :  2.50202e-07
 Reference value :  2.50204e-07
 Reference value :  2.50208e-07
 Reference value :  2.50216e-07
 Reference value :  2.50233e-07
 Reference value :  2.50267e-07
 Reference value :  2.50334e-07
 Reference value :  2.50416e-07
 Reference value :  2.50578e-07
 Reference value :  2.50740e-07
 Reference value :  2.51064e-07
 Reference value :  2.51433e-07
 Reference value :  2.52000e-07
 Reference value :  2.52605e-07
 Reference value :  2.53305e-07
 Reference value :  2.54251e-07
 Reference value :  2.55267e-07
 Reference value :  2.56209e-07
 Reference value :  2.57137e-07
 Reference value :  2.58161e-07
 Reference value :  2.59137e-07
 Reference value :  2.60806e-07
 Reference value :  2.63151e-07
 Reference value :  2.65566e-07
 Reference value :  2.69724e-07
 Reference value :  2.75757e-07
 Reference value :  2.87822e-07
 Reference value :  3.11953e-07
 Reference value :  3.56896e-07
 Reference value :  4.46783e-07
 Reference value :  5.00000e-07
 Reference value :  5.00010e-07
 Reference value :  5.00030e-07
 Reference value :  5.00070e-07
 Reference value :  5.00100e-07
 Reference value :  5.00104e-07
 Reference value :  5.00113e-07
 Reference value :  5.00130e-07
 Reference value :  5.00164e-07
 Reference value :  5.00231e-07
 Reference value :  5.00367e-07
 Reference value :  5.00555e-07
 Reference value :  5.00931e-07
 Reference value :  5.01441e-07
 Reference value :  5.01988e-07
 Reference value :  5.02572e-07
 Reference value :  5.03299e-07
 Reference value :  5.03988e-07
 Reference value :  5.04868e-07
 Reference value :  5.05732e-07
 Reference value :  5.06712e-07
 Reference value :  5.07962e-07
 Reference value :  5.09473e-07
 Reference value :  5.11506e-07
 Reference value :  5.13937e-07
 Reference value :  5.15835e-07
 Reference value :  5.17886e-07
 Reference value :  5.20499e-07
 Reference value :  5.23122e-07
 Reference value :  5.25907e-07
 Reference value :  5.31216e-07
 Reference value :  5.38400e-07
 Reference value :  5.48666e-07
 Reference value :  5.69196e-07
 Reference value :  5.99925e-07
 Reference value :  6.61385e-07
 Reference value :  7.50100e-07
 Reference value :  7.50110e-07
 Reference value :  7.50130e-07
 Reference value :  7.50170e-07
 Reference value :  7.50200e-07
 Reference value :  7.50201e-07
 Reference value :  7.50202e-07
 Reference value :  7.50205e-07
 Reference value :  7.50211e-07
 Reference value :  7.50223e-07
 Reference value :  7.50247e-07
 Reference value :  7.50295e-07
 Reference value :  7.50390e-07
 Reference value :  7.50580e-07
 Reference value :  7.50956e-07
 Reference value :  7.51478e-07
 Reference value :  7.52136e-07
 Reference value :  7.52787e-07
 Reference value :  7.53536e-07
 Reference value :  7.54575e-07
 Reference value :  7.55319e-07
 Reference value :  7.56167e-07
 Reference value :  7.56918e-07
 Reference value :  7.57752e-07
 Reference value :  7.58784e-07
 Reference value :  7.59912e-07
 Reference value :  7.62169e-07
 Reference value :  7.64635e-07
 Reference value :  7.68698e-07
 Reference value :  7.74006e-07
 Reference value :  7.84623e-07
 Reference value :  8.05855e-07
 Reference value :  8.48321e-07
 Reference value :  9.33253e-07
 Reference value :  1.00000e-06
 Reference value :  1.00001e-06
 Reference value :  1.00003e-06
 Reference value :  1.00007e-06
 Reference value :  1.00010e-06
 Reference value :  1.00010e-06
 Reference value :  1.00011e-06
 Reference value :  1.00013e-06
 Reference value :  1.00016e-06
 Reference value :  1.00023e-06
 Reference value :  1.00037e-06
 Reference value :  1.00055e-06
 Reference value :  1.00093e-06
 Reference value :  1.00144e-06
 Reference value :  1.00198e-06
 Reference value :  1.00256e-06
 Reference value :  1.00321e-06
 Reference value :  1.00388e-06
 Reference value :  1.00467e-06
 Reference value :  1.00549e-06
 Reference value :  1.00635e-06
 Reference value :  1.00731e-06
 Reference value :  1.00811e-06
 Reference value :  1.00905e-06
 Reference value :  1.00998e-06
 Reference value :  1.01119e-06
 Reference value :  1.01294e-06
 Reference value :  1.01554e-06
 Reference value :  1.01799e-06
 Reference value :  1.02017e-06
 Reference value :  1.02200e-06
 Reference value :  1.02397e-06
 Reference value :  1.02579e-06
 Reference value :  1.02762e-06
 Reference value :  1.02996e-06
 Reference value :  1.03217e-06
 Reference value :  1.03521e-06
 Reference value :  1.03941e-06
 Reference value :  1.04267e-06
 Reference value :  1.04626e-06
 Reference value :  1.04912e-06
 Reference value :  1.05274e-06
 Reference value :  1.05646e-06
 Reference value :  1.05939e-06
 Reference value :  1.06267e-06
 Reference value :  1.06577e-06
 Reference value :  1.06941e-06
 Reference value :  1.07536e-06
 Reference value :  1.08287e-06
 Reference value :  1.09070e-06
 Reference value :  1.09848e-06
 Reference value :  1.10691e-06
 Reference value :  1.12367e-06
 Reference value :  1.14667e-06
 Reference value :  1.19267e-06
 Reference value :  1.25010e-06
 Reference value :  1.25011e-06
 Reference value :  1.25013e-06
 Reference value :  1.25017e-06
 Reference value :  1.25020e-06
 Reference value :  1.25020e-06
 Reference value :  1.25020e-06
 Reference value :  1.25021e-06
 Reference value :  1.25021e-06
 Reference value :  1.25022e-06
 Reference value :  1.25025e-06
 Reference value :  1.25030e-06
 Reference value :  1.25039e-06
 Reference value :  1.25059e-06
 Reference value :  1.25093e-06
 Reference value :  1.25147e-06
 Reference value :  1.25211e-06
 Reference value :  1.25276e-06
 Reference value :  1.25350e-06
 Reference value :  1.25453e-06
 Reference value :  1.25525e-06
 Reference value :  1.25606e-06
 Reference value :  1.25699e-06
 Reference value :  1.25794e-06
 Reference value :  1.25916e-06
 Reference value :  1.26129e-06
 Reference value :  1.26336e-06
 Reference value :  1.26676e-06
 Reference value :  1.27091e-06
 Reference value :  1.27922e-06
 Reference value :  1.29584e-06
 Reference value :  1.32561e-06
 Reference value :  1.38515e-06
 Reference value :  1.50000e-06
 Reference value :  1.50001e-06
 Reference value :  1.50003e-06
 Reference value :  1.50007e-06
 Reference value :  1.50010e-06
 Reference value :  1.50010e-06
 Reference value :  1.50011e-06
 Reference value :  1.50013e-06
 Reference value :  1.50016e-06
 Reference value :  1.50023e-06
 Reference value :  1.50037e-06
 Reference value :  1.50055e-06
 Reference value :  1.50091e-06
 Reference value :  1.50142e-06
 Reference value :  1.50197e-06
 Reference value :  1.50251e-06
 Reference value :  1.50321e-06
 Reference value :  1.50385e-06
 Reference value :  1.50463e-06
 Reference value :  1.50544e-06
 Reference value :  1.50635e-06
 Reference value :  1.50758e-06
 Reference value :  1.50880e-06
 Reference value :  1.51013e-06
 Reference value :  1.51163e-06
 Reference value :  1.51310e-06
 Reference value :  1.51460e-06
 Reference value :  1.51619e-06
 Reference value :  1.51783e-06
 Reference value :  1.51965e-06
 Reference value :  1.52329e-06
 Reference value :  1.53056e-06
 Reference value :  1.54287e-06
 Reference value :  1.56747e-06
 Reference value :  1.61669e-06
 Reference value :  1.71512e-06
 Reference value :  1.75010e-06
 Reference value :  1.75011e-06
 Reference value :  1.75013e-06
 Reference value :  1.75017e-06
 Reference value :  1.75020e-06
 Reference value :  1.75020e-06
 Reference value :  1.75020e-06
 Reference value :  1.75021e-06
 Reference value :  1.75021e-06
 Reference value :  1.75022e-06
 Reference value :  1.75025e-06
 Reference value :  1.75029e-06
 Reference value :  1.75039e-06
 Reference value :  1.75058e-06
 Reference value :  1.75091e-06
 Reference value :  1.75146e-06
 Reference value :  1.75208e-06
 Reference value :  1.75275e-06
 Reference value :  1.75348e-06
 Reference value :  1.75451e-06
 Reference value :  1.75525e-06
 Reference value :  1.75610e-06
 Reference value :  1.75684e-06
 Reference value :  1.75767e-06
 Reference value :  1.75868e-06
 Reference value :  1.75980e-06
 Reference value :  1.76095e-06
 Reference value :  1.76261e-06
 Reference value :  1.76449e-06
 Reference value :  1.76700e-06
 Reference value :  1.77024e-06
 Reference value :  1.77488e-06
 Reference value :  1.78417e-06
 Reference value :  1.80075e-06
 Reference value :  1.83390e-06
 Reference value :  1.90020e-06
 Reference value :  2.00000e-06
 Reference value :  2.00001e-06
 Reference value :  2.00003e-06
 Reference value :  2.00007e-06
 Reference value :  2.00010e-06
 Reference value :  2.00010e-06
 Reference value :  2.00011e-06
 Reference value :  2.00013e-06
 Reference value :  2.00016e-06
 Reference value :  2.00023e-06
 Reference value :  2.00037e-06
 Reference value :  2.00054e-06
 Reference value :  2.00090e-06
 Reference value :  2.00141e-06
 Reference value :  2.00196e-06
 Reference value :  2.00255e-06
 Reference value :  2.00319e-06
 Reference value :  2.00387e-06
 Reference value :  2.00463e-06
 Reference value :  2.00544e-06
 Reference value :  2.00621e-06
 Reference value :  2.00702e-06
 Reference value :  2.00787e-06
 Reference value :  2.00875e-06
 Reference value :  2.00965e-06
 Reference value :  2.01103e-06
 Reference value :  2.01234e-06
 Reference value :  2.01426e-06
 Reference value :  2.01622e-06
 Reference value :  2.01808e-06
 Reference value :  2.02011e-06
 Reference value :  2.02175e-06
 Reference value :  2.02354e-06
 Reference value :  2.02526e-06
 Reference value :  2.02703e-06
 Reference value :  2.02922e-06
 Reference value :  2.03122e-06
 Reference value :  2.03442e-06
 Reference value :  2.03849e-06
 Reference value :  2.04651e-06
 Reference value :  2.06098e-06
 Reference value :  2.08663e-06
 Reference value :  2.13261e-06
 Reference value :  2.18061e-06
 Reference value :  2.25010e-06
 Reference value :  2.25011e-06
 Reference value :  2.25013e-06
 Reference value :  2.25017e-06
 Reference value :  2.25020e-06
 Reference value :  2.25020e-06
 Reference value :  2.25020e-06
 Reference value :  2.25021e-06
 Reference value :  2.25021e-06
 Reference value :  2.25022e-06
 Reference value :  2.25025e-06
 Reference value :  2.25029e-06
 Reference value :  2.25039e-06
 Reference value :  2.25058e-06
 Reference value :  2.25091e-06
 Reference value :  2.25146e-06
 Reference value :  2.25208e-06
 Reference value :  2.25275e-06
 Reference value :  2.25348e-06
 Reference value :  2.25450e-06
 Reference value :  2.25524e-06
 Reference value :  2.25608e-06
 Reference value :  2.25696e-06
 Reference value :  2.25788e-06
 Reference value :  2.25915e-06
 Reference value :  2.26097e-06
 Reference value :  2.26315e-06
 Reference value :  2.26626e-06
 Reference value :  2.27050e-06
 Reference value :  2.27898e-06
 Reference value :  2.29593e-06
 Reference value :  2.32531e-06
 Reference value :  2.38405e-06
 Reference value :  2.44496e-06
 Reference value :  2.50000e-06
 Reference value :  2.50001e-06
 Reference value :  2.50003e-06
 Reference value :  2.50007e-06
 Reference value :  2.50010e-06
 Reference value :  2.50010e-06
 Reference value :  2.50011e-06
 Reference value :  2.50013e-06
 Reference value :  2.50016e-06
 Reference value :  2.50023e-06
 Reference value :  2.50037e-06
 Reference value :  2.50054e-06
 Reference value :  2.50090e-06
 Reference value :  2.50141e-06
 Reference value :  2.50196e-06
 Reference value :  2.50251e-06
 Reference value :  2.50321e-06
 Reference value :  2.50385e-06
 Reference value :  2.50462e-06
 Reference value :  2.50543e-06
 Reference value :  2.50634e-06
 Reference value :  2.50757e-06
 Reference value :  2.50879e-06
 Reference value :  2.51012e-06
 Reference value :  2.51161e-06
 Reference value :  2.51308e-06
 Reference value :  2.51454e-06
 Reference value :  2.51610e-06
 Reference value :  2.51768e-06
 Reference value :  2.51946e-06
 Reference value :  2.52303e-06
 Reference value :  2.53016e-06
 Reference value :  2.54265e-06
 Reference value :  2.56764e-06
 Reference value :  2.61761e-06
 Reference value :  2.71756e-06
 Reference value :  2.75010e-06
 Reference value :  2.75011e-06
 Reference value :  2.75013e-06
 Reference value :  2.75017e-06
 Reference value :  2.75020e-06
 Reference value :  2.75020e-06
 Reference value :  2.75020e-06
 Reference value :  2.75021e-06
 Reference value :  2.75021e-06
 Reference value :  2.75022e-06
 Reference value :  2.75025e-06
 Reference value :  2.75029e-06
 Reference value :  2.75039e-06
 Reference value :  2.75058e-06
 Reference value :  2.75091e-06
 Reference value :  2.75145e-06
 Reference value :  2.75208e-06
 Reference value :  2.75275e-06
 Reference value :  2.75348e-06
 Reference value :  2.75450e-06
 Reference value :  2.75524e-06
 Reference value :  2.75609e-06
 Reference value :  2.75683e-06
 Reference value :  2.75766e-06
 Reference value :  2.75867e-06
 Reference value :  2.75979e-06
 Reference value :  2.76092e-06
 Reference value :  2.76260e-06
 Reference value :  2.76445e-06
 Reference value :  2.76697e-06
 Reference value :  2.77017e-06
 Reference value :  2.77478e-06
 Reference value :  2.78402e-06
 Reference value :  2.79918e-06
 Reference value :  2.82950e-06
 Reference value :  2.89015e-06
 Reference value :  3.00000e-06
 Reference value :  3.00001e-06
 Reference value :  3.00003e-06
 Reference value :  3.00007e-06
 Reference value :  3.00010e-06
 Reference value :  3.00010e-06
 Reference value :  3.00011e-06
 Reference value :  3.00013e-06
 Reference value :  3.00016e-06
 Reference value :  3.00023e-06
 Reference value :  3.00037e-06
 Reference value :  3.00054e-06
 Reference value :  3.00090e-06
 Reference value :  3.00141e-06
 Reference value :  3.00196e-06
 Reference value :  3.00254e-06
 Reference value :  3.00319e-06
 Reference value :  3.00387e-06
 Reference value :  3.00463e-06
 Reference value :  3.00544e-06
 Reference value :  3.00628e-06
 Reference value :  3.00707e-06
 Reference value :  3.00795e-06
 Reference value :  3.00886e-06
 Reference value :  3.00978e-06
 Reference value :  3.01109e-06
 Reference value :  3.01259e-06
 Reference value :  3.01473e-06
 Reference value :  3.01630e-06
 Reference value :  3.01799e-06
 Reference value :  3.01978e-06
 Reference value :  3.02119e-06
 Reference value :  3.02259e-06
 Reference value :  3.02426e-06
 Reference value :  3.02586e-06
 Reference value :  3.02734e-06
 Reference value :  3.02929e-06
 Reference value :  3.03172e-06
 Reference value :  3.03435e-06
 Reference value :  3.03891e-06
 Reference value :  3.04516e-06
 Reference value :  3.05539e-06
 Reference value :  3.07236e-06
 Reference value :  3.09934e-06
 Reference value :  3.14132e-06
 Reference value :  3.18031e-06
 Reference value :  3.21669e-06
 Reference value :  3.25010e-06
 Reference value :  3.25011e-06
 Reference value :  3.25013e-06
 Reference value :  3.25017e-06
 Reference value :  3.25020e-06
 Reference value :  3.25020e-06
 Reference value :  3.25020e-06
 Reference value :  3.25021e-06
 Reference value :  3.25021e-06
 Reference value :  3.25022e-06
 Reference value :  3.25025e-06
 Reference value :  3.25030e-06
 Reference value :  3.25039e-06
 Reference value :  3.25059e-06
 Reference value :  3.25093e-06
 Reference value :  3.25146e-06
 Reference value :  3.25210e-06
 Reference value :  3.25276e-06
 Reference value :  3.25349e-06
 Reference value :  3.25452e-06
 Reference value :  3.25524e-06
 Reference value :  3.25608e-06
 Reference value :  3.25697e-06
 Reference value :  3.25788e-06
 Reference value :  3.25915e-06
 Reference value :  3.26099e-06
 Reference value :  3.26316e-06
 Reference value :  3.26630e-06
 Reference value :  3.27053e-06
 Reference value :  3.27897e-06
 Reference value :  3.29587e-06
 Reference value :  3.32518e-06
 Reference value :  3.38381e-06
 Reference value :  3.49517e-06
 Reference value :  3.50000e-06
 Reference value :  3.50001e-06
 Reference value :  3.50003e-06
 Reference value :  3.50007e-06
 Reference value :  3.50010e-06
 Reference value :  3.50010e-06
 Reference value :  3.50011e-06
 Reference value :  3.50013e-06
 Reference value :  3.50016e-06
 Reference value :  3.50023e-06
 Reference value :  3.50037e-06
 Reference value :  3.50054e-06
 Reference value :  3.50090e-06
 Reference value :  3.50141e-06
 Reference value :  3.50196e-06
 Reference value :  3.50251e-06
 Reference value :  3.50321e-06
 Reference value :  3.50385e-06
 Reference value :  3.50462e-06
 Reference value :  3.50543e-06
 Reference value :  3.50629e-06
 Reference value :  3.50753e-06
 Reference value :  3.50871e-06
 Reference value :  3.51007e-06
 Reference value :  3.51160e-06
 Reference value :  3.51301e-06
 Reference value :  3.51436e-06
 Reference value :  3.51585e-06
 Reference value :  3.51733e-06
 Reference value :  3.51906e-06
 Reference value :  3.52251e-06
 Reference value :  3.52820e-06
 Reference value :  3.53959e-06
 Reference value :  3.56237e-06
 Reference value :  3.60791e-06
 Reference value :  3.69901e-06
 Reference value :  3.75010e-06
 Reference value :  3.75011e-06
 Reference value :  3.75013e-06
 Reference value :  3.75017e-06
 Reference value :  3.75020e-06
 Reference value :  3.75020e-06
 Reference value :  3.75020e-06
 Reference value :  3.75021e-06
 Reference value :  3.75021e-06
 Reference value :  3.75022e-06
 Reference value :  3.75025e-06
 Reference value :  3.75029e-06
 Reference value :  3.75039e-06
 Reference value :  3.75058e-06
 Reference value :  3.75091e-06
 Reference value :  3.75145e-06
 Reference value :  3.75208e-06
 Reference value :  3.75275e-06
 Reference value :  3.75348e-06
 Reference value :  3.75450e-06
 Reference value :  3.75524e-06
 Reference value :  3.75609e-06
 Reference value :  3.75684e-06
 Reference value :  3.75766e-06
 Reference value :  3.75867e-06
 Reference value :  3.75979e-06
 Reference value :  3.76093e-06
 Reference value :  3.76260e-06
 Reference value :  3.76447e-06
 Reference value :  3.76699e-06
 Reference value :  3.77021e-06
 Reference value :  3.77484e-06
 Reference value :  3.78411e-06
 Reference value :  3.80015e-06
 Reference value :  3.83223e-06
 Reference value :  3.89640e-06
 Reference value :  4.00000e-06
 Reference value :  4.00001e-06
 Reference value :  4.00003e-06
 Reference value :  4.00007e-06
 Reference value :  4.00010e-06
 Reference value :  4.00010e-06
 Reference value :  4.00011e-06
 Reference value :  4.00013e-06
 Reference value :  4.00016e-06
 Reference value :  4.00023e-06
 Reference value :  4.00037e-06
 Reference value :  4.00054e-06
 Reference value :  4.00090e-06
 Reference value :  4.00141e-06
 Reference value :  4.00196e-06
 Reference value :  4.00254e-06
 Reference value :  4.00319e-06
 Reference value :  4.00387e-06
 Reference value :  4.00463e-06
 Reference value :  4.00544e-06
 Reference value :  4.00622e-06
 Reference value :  4.00702e-06
 Reference value :  4.00788e-06
 Reference value :  4.00878e-06
 Reference value :  4.00969e-06
 Reference value :  4.01097e-06
 Reference value :  4.01246e-06
 Reference value :  4.01389e-06
 Reference value :  4.01545e-06
 Reference value :  4.01724e-06
 Reference value :  4.01886e-06
 Reference value :  4.02057e-06
 Reference value :  4.02181e-06
 Reference value :  4.02320e-06
 Reference value :  4.02454e-06
 Reference value :  4.02597e-06
 Reference value :  4.02767e-06
 Reference value :  4.02935e-06
 Reference value :  4.03224e-06
 Reference value :  4.03491e-06
 Reference value :  4.04026e-06
 Reference value :  4.05063e-06
 Reference value :  4.06487e-06
 Reference value :  4.08678e-06
 Reference value :  4.10553e-06
 Reference value :  4.12570e-06
 Reference value :  4.14295e-06
 Reference value :  4.16240e-06
 Reference value :  4.19831e-06
 Reference value :  4.23427e-06
 Reference value :  4.25010e-06
 Reference value :  4.25011e-06
 Reference value :  4.25013e-06
 Reference value :  4.25017e-06
 Reference value :  4.25020e-06
 Reference value :  4.25020e-06
 Reference value :  4.25020e-06
 Reference value :  4.25021e-06
 Reference value :  4.25021e-06
 Reference value :  4.25022e-06
 Reference value :  4.25025e-06
 Reference value :  4.25029e-06
 Reference value :  4.25039e-06
 Reference value :  4.25058e-06
 Reference value :  4.25091e-06
 Reference value :  4.25145e-06
 Reference value :  4.25208e-06
 Reference value :  4.25275e-06
 Reference value :  4.25348e-06
 Reference value :  4.25450e-06
 Reference value :  4.25523e-06
 Reference value :  4.25607e-06
 Reference value :  4.25695e-06
 Reference value :  4.25786e-06
 Reference value :  4.25914e-06
 Reference value :  4.26093e-06
 Reference value :  4.26316e-06
 Reference value :  4.26621e-06
 Reference value :  4.27051e-06
 Reference value :  4.27912e-06
 Reference value :  4.29602e-06
 Reference value :  4.32544e-06
 Reference value :  4.38427e-06
 Reference value :  4.50000e-06
 Reference value :  4.50001e-06
 Reference value :  4.50003e-06
 Reference value :  4.50007e-06
 Reference value :  4.50010e-06
 Reference value :  4.50010e-06
 Reference value :  4.50011e-06
 Reference value :  4.50013e-06
 Reference value :  4.50016e-06
 Reference value :  4.50023e-06
 Reference value :  4.50037e-06
 Reference value :  4.50055e-06
 Reference value :  4.50091e-06
 Reference value :  4.50142e-06
 Reference value :  4.50197e-06
 Reference value :  4.50251e-06
 Reference value :  4.50321e-06
 Reference value :  4.50385e-06
 Reference value :  4.50462e-06
 Reference value :  4.50544e-06
 Reference value :  4.50629e-06
 Reference value :  4.50754e-06
 Reference value :  4.50871e-06
 Reference value :  4.50998e-06
 Reference value :  4.51140e-06
 Reference value :  4.51289e-06
 Reference value :  4.51429e-06
 Reference value :  4.51576e-06
 Reference value :  4.51733e-06
 Reference value :  4.51912e-06
 Reference value :  4.52247e-06
 Reference value :  4.52740e-06
 Reference value :  4.53727e-06
 Reference value :  4.55653e-06
 Reference value :  4.59353e-06
 Reference value :  4.66752e-06
 Reference value :  4.75010e-06
 Reference value :  4.75011e-06
 Reference value :  4.75013e-06
 Reference value :  4.75017e-06
 Reference value :  4.75020e-06
 Reference value :  4.75020e-06
 Reference value :  4.75020e-06
 Reference value :  4.75021e-06
 Reference value :  4.75021e-06
 Reference value :  4.75022e-06
 Reference value :  4.75025e-06
 Reference value :  4.75029e-06
 Reference value :  4.75039e-06
 Reference value :  4.75058e-06
 Reference value :  4.75091e-06
 Reference value :  4.75145e-06
 Reference value :  4.75208e-06
 Reference value :  4.75274e-06
 Reference value :  4.75347e-06
 Reference value :  4.75449e-06
 Reference value :  4.75523e-06
 Reference value :  4.75608e-06
 Reference value :  4.75683e-06
 Reference value :  4.75765e-06
 Reference value :  4.75866e-06
 Reference value :  4.75977e-06
 Reference value :  4.76091e-06
 Reference value :  4.76257e-06
 Reference value :  4.76444e-06
 Reference value :  4.76695e-06
 Reference value :  4.77015e-06
 Reference value :  4.77475e-06
 Reference value :  4.78397e-06
 Reference value :  4.79956e-06
 Reference value :  4.83075e-06
 Reference value :  4.89314e-06
 Reference value :  5.00000e-06
 Reference value :  5.00001e-06
 Reference value :  5.00003e-06
 Reference value :  5.00007e-06
 Reference value :  5.00010e-06
 Reference value :  5.00010e-06
 Reference value :  5.00011e-06
 Reference value :  5.00013e-06
 Reference value :  5.00016e-06
 Reference value :  5.00023e-06
 Reference value :  5.00037e-06
 Reference value :  5.00054e-06
 Reference value :  5.00090e-06
 Reference value :  5.00141e-06
 Reference value :  5.00196e-06
 Reference value :  5.00254e-06
 Reference value :  5.00320e-06
 Reference value :  5.00388e-06
 Reference value :  5.00465e-06
 Reference value :  5.00546e-06
 Reference value :  5.00626e-06
 Reference value :  5.00708e-06
 Reference value :  5.00788e-06
 Reference value :  5.00879e-06
 Reference value :  5.00968e-06
 Reference value :  5.01088e-06
 Reference value :  5.01254e-06
 Reference value :  5.01381e-06
 Reference value :  5.01520e-06
 Reference value :  5.01656e-06
 Reference value :  5.01814e-06
 Reference value :  5.01960e-06
 Reference value :  5.02081e-06
 Reference value :  5.02201e-06
 Reference value :  5.02346e-06
 Reference value :  5.02486e-06
 Reference value :  5.02626e-06
 Reference value :  5.02813e-06
 Reference value :  5.02985e-06
 Reference value :  5.03275e-06
 Reference value :  5.03616e-06
 Reference value :  5.04299e-06
 Reference value :  5.05561e-06
 Reference value :  5.07175e-06
 Reference value :  5.08743e-06
 Reference value :  5.10421e-06
 Reference value :  5.12509e-06
 Reference value :  5.15104e-06
 Reference value :  5.18662e-06
 Reference value :  5.21114e-06
 Reference value :  5.23995e-06
 Reference value :  5.25010e-06
 Reference value :  5.25011e-06
 Reference value :  5.25013e-06
 Reference value :  5.25017e-06
 Reference value :  5.25020e-06
 Reference value :  5.25020e-06
 Reference value :  5.25020e-06
 Reference value :  5.25021e-06
 Reference value :  5.25021e-06
 Reference value :  5.25022e-06
 Reference value :  5.25025e-06
 Reference value :  5.25030e-06
 Reference value :  5.25039e-06
 Reference value :  5.25059e-06
 Reference value :  5.25093e-06
 Reference value :  5.25146e-06
 Reference value :  5.25209e-06
 Reference value :  5.25275e-06
 Reference value :  5.25348e-06
 Reference value :  5.25450e-06
 Reference value :  5.25524e-06
 Reference value :  5.25608e-06
 Reference value :  5.25696e-06
 Reference value :  5.25787e-06
 Reference value :  5.25915e-06
 Reference value :  5.26095e-06
 Reference value :  5.26314e-06
 Reference value :  5.26624e-06
 Reference value :  5.27048e-06
 Reference value :  5.27897e-06
 Reference value :  5.29582e-06
 Reference value :  5.32472e-06
 Reference value :  5.38252e-06
 Reference value :  5.49812e-06
 Reference value :  5.50000e-06
 Reference value :  5.50001e-06
 Reference value :  5.50003e-06
 Reference value :  5.50007e-06
 Reference value :  5.50010e-06
 Reference value :  5.50010e-06
 Reference value :  5.50011e-06
 Reference value :  5.50013e-06
 Reference value :  5.50016e-06
 Reference value :  5.50023e-06
 Reference value :  5.50037e-06
 Reference value :  5.50054e-06
 Reference value :  5.50090e-06
 Reference value :  5.50141e-06
 Reference value :  5.50196e-06
 Reference value :  5.50251e-06
 Reference value :  5.50321e-06
 Reference value :  5.50385e-06
 Reference value :  5.50462e-06
 Reference value :  5.50544e-06
 Reference value :  5.50635e-06
 Reference value :  5.50757e-06
 Reference value :  5.50880e-06
 Reference value :  5.51004e-06
 Reference value :  5.51138e-06
 Reference value :  5.51302e-06
 Reference value :  5.51452e-06
 Reference value :  5.51606e-06
 Reference value :  5.51784e-06
 Reference value :  5.51982e-06
 Reference value :  5.52326e-06
 Reference value :  5.52829e-06
 Reference value :  5.53756e-06
 Reference value :  5.55458e-06
 Reference value :  5.58560e-06
 Reference value :  5.64614e-06
 Reference value :  5.75010e-06
 Reference value :  5.75011e-06
 Reference value :  5.75013e-06
 Reference value :  5.75017e-06
 Reference value :  5.75020e-06
 Reference value :  5.75020e-06
 Reference value :  5.75020e-06
 Reference value :  5.75021e-06
 Reference value :  5.75021e-06
 Reference value :  5.75022e-06
 Reference value :  5.75025e-06
 Reference value :  5.75029e-06
 Reference value :  5.75039e-06
 Reference value :  5.75058e-06
 Reference value :  5.75091e-06
 Reference value :  5.75145e-06
 Reference value :  5.75208e-06
 Reference value :  5.75274e-06
 Reference value :  5.75347e-06
 Reference value :  5.75449e-06
 Reference value :  5.75523e-06
 Reference value :  5.75609e-06
 Reference value :  5.75684e-06
 Reference value :  5.75766e-06
 Reference value :  5.75867e-06
 Reference value :  5.75979e-06
 Reference value :  5.76094e-06
 Reference value :  5.76259e-06
 Reference value :  5.76448e-06
 Reference value :  5.76699e-06
 Reference value :  5.77022e-06
 Reference value :  5.77485e-06
 Reference value :  5.78413e-06
 Reference value :  5.80045e-06
 Reference value :  5.83310e-06
 Reference value :  5.89839e-06
 Reference value :  6.00000e-06
 Reference value :  6.00001e-06
 Reference value :  6.00003e-06
 Reference value :  6.00007e-06
 Reference value :  6.00010e-06
 Reference value :  6.00010e-06
 Reference value :  6.00011e-06
 Reference value :  6.00013e-06
 Reference value :  6.00016e-06
 Reference value :  6.00023e-06
 Reference value :  6.00037e-06
 Reference value :  6.00054e-06
 Reference value :  6.00090e-06
 Reference value :  6.00141e-06
 Reference value :  6.00196e-06
 Reference value :  6.00255e-06
 Reference value :  6.00319e-06
 Reference value :  6.00387e-06
 Reference value :  6.00463e-06
 Reference value :  6.00544e-06
 Reference value :  6.00629e-06
 Reference value :  6.00708e-06
 Reference value :  6.00782e-06
 Reference value :  6.00867e-06
 Reference value :  6.00957e-06
 Reference value :  6.01070e-06
 Reference value :  6.01224e-06
 Reference value :  6.01382e-06
 Reference value :  6.01536e-06
 Reference value :  6.01717e-06
 Reference value :  6.01884e-06
 Reference value :  6.02054e-06
 Reference value :  6.02178e-06
 Reference value :  6.02292e-06
 Reference value :  6.02417e-06
 Reference value :  6.02558e-06
 Reference value :  6.02686e-06
 Reference value :  6.02845e-06
 Reference value :  6.03076e-06
 Reference value :  6.03303e-06
 Reference value :  6.03710e-06
 Reference value :  6.04328e-06
 Reference value :  6.05244e-06
 Reference value :  6.06167e-06
 Reference value :  6.07523e-06
 Reference value :  6.09415e-06
 Reference value :  6.13200e-06
 Reference value :  6.18707e-06
 Reference value :  6.25010e-06
 Reference value :  6.25011e-06
 Reference value :  6.25013e-06
 Reference value :  6.25017e-06
 Reference value :  6.25020e-06
 Reference value :  6.25020e-06
 Reference value :  6.25020e-06
 Reference value :  6.25021e-06
 Reference value :  6.25021e-06
 Reference value :  6.25022e-06
 Reference value :  6.25025e-06
 Reference value :  6.25029e-06
 Reference value :  6.25039e-06
 Reference value :  6.25058e-06
 Reference value :  6.25092e-06
 Reference value :  6.25145e-06
 Reference value :  6.25208e-06
 Reference value :  6.25275e-06
 Reference value :  6.25348e-06
 Reference value :  6.25450e-06
 Reference value :  6.25523e-06
 Reference value :  6.25607e-06
 Reference value :  6.25695e-06
 Reference value :  6.25786e-06
 Reference value :  6.25914e-06
 Reference value :  6.26092e-06
 Reference value :  6.26312e-06
 Reference value :  6.26619e-06
 Reference value :  6.27045e-06
 Reference value :  6.27898e-06
 Reference value :  6.29563e-06
 Reference value :  6.32445e-06
 Reference value :  6.38209e-06
 Reference value :  6.49735e-06
 Reference value :  6.50000e-06
 Reference value :  6.50001e-06
 Reference value :  6.50003e-06
 Reference value :  6.50007e-06
 Reference value :  6.50010e-06
 Reference value :  6.50010e-06
 Reference value :  6.50011e-06
 Reference value :  6.50013e-06
 Reference value :  6.50016e-06
 Reference value :  6.50023e-06
 Reference value :  6.50037e-06
 Reference value :  6.50054e-06
 Reference value :  6.50090e-06
 Reference value :  6.50141e-06
 Reference value :  6.50196e-06
 Reference value :  6.50251e-06
 Reference value :  6.50320e-06
 Reference value :  6.50385e-06
 Reference value :  6.50462e-06
 Reference value :  6.50543e-06
 Reference value :  6.50629e-06
 Reference value :  6.50753e-06
 Reference value :  6.50871e-06
 Reference value :  6.51008e-06
 Reference value :  6.51161e-06
 Reference value :  6.51300e-06
 Reference value :  6.51441e-06
 Reference value :  6.51591e-06
 Reference value :  6.51760e-06
 Reference value :  6.51951e-06
 Reference value :  6.52300e-06
 Reference value :  6.52808e-06
 Reference value :  6.53781e-06
 Reference value :  6.55592e-06
 Reference value :  6.58944e-06
 Reference value :  6.65541e-06
 Reference value :  6.75010e-06
 Reference value :  6.75011e-06
 Reference value :  6.75013e-06
 Reference value :  6.75017e-06
 Reference value :  6.75020e-06
 Reference value :  6.75020e-06
 Reference value :  6.75020e-06
 Reference value :  6.75021e-06
 Reference value :  6.75021e-06
 Reference value :  6.75022e-06
 Reference value :  6.75025e-06
 Reference value :  6.75029e-06
 Reference value :  6.75039e-06
 Reference value :  6.75058e-06
 Reference value :  6.75091e-06
 Reference value :  6.75145e-06
 Reference value :  6.75208e-06
 Reference value :  6.75275e-06
 Reference value :  6.75348e-06
 Reference value :  6.75450e-06
 Reference value :  6.75523e-06
 Reference value :  6.75609e-06
 Reference value :  6.75683e-06
 Reference value :  6.75766e-06
 Reference value :  6.75867e-06
 Reference value :  6.75978e-06
 Reference value :  6.76093e-06
 Reference value :  6.76259e-06
 Reference value :  6.76446e-06
 Reference value :  6.76697e-06
 Reference value :  6.77019e-06
 Reference value :  6.77482e-06
 Reference value :  6.78407e-06
 Reference value :  6.80014e-06
 Reference value :  6.83229e-06
 Reference value :  6.89659e-06
 Reference value :  7.00000e-06
 Reference value :  7.00001e-06
 Reference value :  7.00003e-06
 Reference value :  7.00007e-06
 Reference value :  7.00010e-06
 Reference value :  7.00010e-06
 Reference value :  7.00011e-06
 Reference value :  7.00013e-06
 Reference value :  7.00016e-06
 Reference value :  7.00023e-06
 Reference value :  7.00037e-06
 Reference value :  7.00054e-06
 Reference value :  7.00090e-06
 Reference value :  7.00141e-06
 Reference value :  7.00196e-06
 Reference value :  7.00254e-06
 Reference value :  7.00319e-06
 Reference value :  7.00387e-06
 Reference value :  7.00463e-06
 Reference value :  7.00544e-06
 Reference value :  7.00622e-06
 Reference value :  7.00703e-06
 Reference value :  7.00782e-06
 Reference value :  7.00872e-06
 Reference value :  7.00960e-06
 Reference value :  7.01079e-06
 Reference value :  7.01245e-06
 Reference value :  7.01423e-06
 Reference value :  7.01578e-06
 Reference value :  7.01739e-06
 Reference value :  7.01888e-06
 Reference value :  7.02051e-06
 Reference value :  7.02175e-06
 Reference value :  7.02294e-06
 Reference value :  7.02441e-06
 Reference value :  7.02588e-06
 Reference value :  7.02725e-06
 Reference value :  7.02900e-06
 Reference value :  7.03146e-06
 Reference value :  7.03383e-06
 Reference value :  7.03830e-06
 Reference value :  7.04467e-06
 Reference value :  7.05224e-06
 Reference value :  7.06350e-06
 Reference value :  7.08601e-06
 Reference value :  7.12192e-06
 Reference value :  7.18641e-06
 Reference value :  7.25010e-06
 Reference value :  7.25011e-06
 Reference value :  7.25013e-06
 Reference value :  7.25017e-06
 Reference value :  7.25020e-06
 Reference value :  7.25020e-06
 Reference value :  7.25020e-06
 Reference value :  7.25021e-06
 Reference value :  7.25021e-06
 Reference value :  7.25022e-06
 Reference value :  7.25025e-06
 Reference value :  7.25030e-06
 Reference value :  7.25039e-06
 Reference value :  7.25059e-06
 Reference value :  7.25093e-06
 Reference value :  7.25146e-06
 Reference value :  7.25211e-06
 Reference value :  7.25276e-06
 Reference value :  7.25350e-06
 Reference value :  7.25452e-06
 Reference value :  7.25523e-06
 Reference value :  7.25605e-06
 Reference value :  7.25694e-06
 Reference value :  7.25786e-06
 Reference value :  7.25911e-06
 Reference value :  7.26106e-06
 Reference value :  7.26319e-06
 Reference value :  7.26638e-06
 Reference value :  7.27057e-06
 Reference value :  7.27896e-06
 Reference value :  7.29573e-06
 Reference value :  7.32441e-06
 Reference value :  7.38177e-06
 Reference value :  7.49649e-06
 Reference value :  7.50000e-06
 Reference value :  7.50001e-06
 Reference value :  7.50003e-06
 Reference value :  7.50007e-06
 Reference value :  7.50010e-06
 Reference value :  7.50010e-06
 Reference value :  7.50011e-06
 Reference value :  7.50013e-06
 Reference value :  7.50016e-06
 Reference value :  7.50023e-06
 Reference value :  7.50037e-06
 Reference value :  7.50055e-06
 Reference value :  7.50090e-06
 Reference value :  7.50141e-06
 Reference value :  7.50195e-06
 Reference value :  7.50249e-06
 Reference value :  7.50318e-06
 Reference value :  7.50383e-06
 Reference value :  7.50461e-06
 Reference value :  7.50542e-06
 Reference value :  7.50634e-06
 Reference value :  7.50755e-06
 Reference value :  7.50878e-06
 Reference value :  7.51016e-06
 Reference value :  7.51170e-06
 Reference value :  7.51312e-06
 Reference value :  7.51448e-06
 Reference value :  7.51596e-06
 Reference value :  7.51751e-06
 Reference value :  7.51928e-06
 Reference value :  7.52272e-06
 Reference value :  7.52767e-06
 Reference value :  7.53756e-06
 Reference value :  7.55734e-06
 Reference value :  7.59462e-06
 Reference value :  7.66920e-06
 Reference value :  7.75010e-06
 Reference value :  7.75011e-06
 Reference value :  7.75013e-06
 Reference value :  7.75017e-06
 Reference value :  7.75020e-06
 Reference value :  7.75020e-06
 Reference value :  7.75020e-06
 Reference value :  7.75021e-06
 Reference value :  7.75021e-06
 Reference value :  7.75022e-06
 Reference value :  7.75025e-06
 Reference value :  7.75029e-06
 Reference value :  7.75039e-06
 Reference value :  7.75058e-06
 Reference value :  7.75092e-06
 Reference value :  7.75145e-06
 Reference value :  7.75209e-06
 Reference value :  7.75275e-06
 Reference value :  7.75348e-06
 Reference value :  7.75450e-06
 Reference value :  7.75522e-06
 Reference value :  7.75606e-06
 Reference value :  7.75680e-06
 Reference value :  7.75762e-06
 Reference value :  7.75862e-06
 Reference value :  7.75974e-06
 Reference value :  7.76087e-06
 Reference value :  7.76255e-06
 Reference value :  7.76438e-06
 Reference value :  7.76691e-06
 Reference value :  7.77010e-06
 Reference value :  7.77471e-06
 Reference value :  7.78393e-06
 Reference value :  7.79944e-06
 Reference value :  7.83046e-06
 Reference value :  7.89251e-06
 Reference value :  8.00000e-06
 Reference value :  8.00001e-06
 Reference value :  8.00003e-06
 Reference value :  8.00007e-06
 Reference value :  8.00010e-06
 Reference value :  8.00010e-06
 Reference value :  8.00011e-06
 Reference value :  8.00013e-06
 Reference value :  8.00016e-06
 Reference value :  8.00023e-06
 Reference value :  8.00037e-06
 Reference value :  8.00055e-06
 Reference value :  8.00090e-06
 Reference value :  8.00141e-06
 Reference value :  8.00195e-06
 Reference value :  8.00253e-06
 Reference value :  8.00325e-06
 Reference value :  8.00390e-06
 Reference value :  8.00467e-06
 Reference value :  8.00549e-06
 Reference value :  8.00635e-06
 Reference value :  8.00723e-06
 Reference value :  8.00802e-06
 Reference value :  8.00889e-06
 Reference value :  8.00984e-06
 Reference value :  8.01099e-06
 Reference value :  8.01277e-06
 Reference value :  8.01452e-06
 Reference value :  8.01614e-06
 Reference value :  8.01780e-06
 Reference value :  8.01953e-06
 Reference value :  8.02131e-06
 Reference value :  8.02343e-06
 Reference value :  8.02578e-06
 Reference value :  8.02902e-06
 Reference value :  8.03261e-06
 Reference value :  8.03921e-06
 Reference value :  8.05039e-06
 Reference value :  8.06748e-06
 Reference value :  8.09716e-06
 Reference value :  8.14071e-06
 Reference value :  8.18164e-06
 Reference value :  8.22651e-06
 Reference value :  8.25010e-06
 Reference value :  8.25011e-06
 Reference value :  8.25013e-06
 Reference value :  8.25017e-06
 Reference value :  8.25020e-06
 Reference value :  8.25020e-06
 Reference value :  8.25020e-06
 Reference value :  8.25021e-06
 Reference value :  8.25021e-06
 Reference value :  8.25022e-06
 Reference value :  8.25025e-06
 Reference value :  8.25030e-06
 Reference value :  8.25039e-06
 Reference value :  8.25059e-06
 Reference value :  8.25098e-06
 Reference value :  8.25148e-06
 Reference value :  8.25216e-06
 Reference value :  8.25279e-06
 Reference value :  8.25355e-06
 Reference value :  8.25459e-06
 Reference value :  8.25557e-06
 Reference value :  8.25696e-06
 Reference value :  8.25856e-06
 Reference value :  8.26005e-06
 Reference value :  8.26257e-06
 Reference value :  8.26525e-06
 Reference value :  8.26964e-06
 Reference value :  8.27636e-06
 Reference value :  8.28981e-06
 Reference value :  8.31670e-06
 Reference value :  8.36891e-06
 Reference value :  8.47332e-06
 Reference value :  8.50000e-06
 Reference value :  8.50001e-06
 Reference value :  8.50003e-06
 Reference value :  8.50007e-06
 Reference value :  8.50010e-06
 Reference value :  8.50010e-06
 Reference value :  8.50011e-06
 Reference value :  8.50013e-06
 Reference value :  8.50016e-06
 Reference value :  8.50023e-06
 Reference value :  8.50037e-06
 Reference value :  8.50063e-06
 Reference value :  8.50106e-06
 Reference value :  8.50180e-06
 Reference value :  8.50254e-06
 Reference value :  8.50315e-06
 Reference value :  8.50389e-06
 Reference value :  8.50465e-06
 Reference value :  8.50549e-06
 Reference value :  8.50653e-06
 Reference value :  8.50762e-06
 Reference value :  8.50925e-06
 Reference value :  8.51106e-06
 Reference value :  8.51264e-06
 Reference value :  8.51427e-06
 Reference value :  8.51632e-06
 Reference value :  8.51890e-06
 Reference value :  8.52162e-06
 Reference value :  8.52705e-06
 Reference value :  8.53330e-06
 Reference value :  8.53760e-06
 Reference value :  8.54233e-06
 Reference value :  8.54798e-06
 Reference value :  8.55408e-06
 Reference value :  8.56288e-06
 Reference value :  8.57386e-06
 Reference value :  8.58946e-06
 Reference value :  8.61149e-06
 Reference value :  8.64257e-06
 Reference value :  8.68822e-06
 Reference value :  8.75010e-06
 Reference value :  8.75011e-06
 Reference value :  8.75013e-06
 Reference value :  8.75017e-06
 Reference value :  8.75020e-06
 Reference value :  8.75020e-06
 Reference value :  8.75020e-06
 Reference value :  8.75021e-06
 Reference value :  8.75021e-06
 Reference value :  8.75022e-06
 Reference value :  8.75025e-06
 Reference value :  8.75029e-06
 Reference value :  8.75039e-06
 Reference value :  8.75058e-06
 Reference value :  8.75096e-06
 Reference value :  8.75147e-06
 Reference value :  8.75214e-06
 Reference value :  8.75279e-06
 Reference value :  8.75352e-06
 Reference value :  8.75444e-06
 Reference value :  8.75517e-06
 Reference value :  8.75602e-06
 Reference value :  8.75682e-06
 Reference value :  8.75768e-06
 Reference value :  8.75903e-06
 Reference value :  8.76045e-06
 Reference value :  8.76285e-06
 Reference value :  8.76554e-06
 Reference value :  8.76999e-06
 Reference value :  8.77690e-06
 Reference value :  8.79071e-06
 Reference value :  8.81733e-06
 Reference value :  8.87058e-06
 Reference value :  8.97708e-06
 Reference value :  9.00000e-06
 Reference value :  9.00001e-06
 Reference value :  9.00003e-06
 Reference value :  9.00007e-06
 Reference value :  9.00010e-06
 Reference value :  9.00010e-06
 Reference value :  9.00011e-06
 Reference value :  9.00013e-06
 Reference value :  9.00016e-06
 Reference value :  9.00023e-06
 Reference value :  9.00037e-06
 Reference value :  9.00055e-06
 Reference value :  9.00093e-06
 Reference value :  9.00144e-06
 Reference value :  9.00198e-06
 Reference value :  9.00253e-06
 Reference value :  9.00322e-06
 Reference value :  9.00390e-06
 Reference value :  9.00472e-06
 Reference value :  9.00556e-06
 Reference value :  9.00646e-06
 Reference value :  9.00773e-06
 Reference value :  9.00902e-06
 Reference value :  9.01126e-06
 Reference value :  9.01376e-06
 Reference value :  9.01565e-06
 Reference value :  9.01779e-06
 Reference value :  9.02023e-06
 Reference value :  9.02270e-06
 Reference value :  9.02541e-06
 Reference value :  9.03035e-06
 Reference value :  9.03700e-06
 Reference value :  9.04686e-06
 Reference value :  9.06659e-06
 Reference value :  9.09495e-06
 Reference value :  9.15167e-06
 Reference value :  9.25010e-06
 Reference value :  9.25011e-06
 Reference value :  9.25013e-06
 Reference value :  9.25017e-06
 Reference value :  9.25020e-06
 Reference value :  9.25020e-06
 Reference value :  9.25020e-06
 Reference value :  9.25021e-06
 Reference value :  9.25021e-06
 Reference value :  9.25022e-06
 Reference value :  9.25025e-06
 Reference value :  9.25029e-06
 Reference value :  9.25039e-06
 Reference value :  9.25058e-06
 Reference value :  9.25096e-06
 Reference value :  9.25148e-06
 Reference value :  9.25214e-06
 Reference value :  9.25279e-06
 Reference value :  9.25354e-06
 Reference value :  9.25459e-06
 Reference value :  9.25533e-06
 Reference value :  9.25618e-06
 Reference value :  9.25694e-06
 Reference value :  9.25777e-06
 Reference value :  9.25886e-06
 Reference value :  9.26006e-06
 Reference value :  9.26120e-06
 Reference value :  9.26292e-06
 Reference value :  9.26476e-06
 Reference value :  9.26724e-06
 Reference value :  9.27057e-06
 Reference value :  9.27526e-06
 Reference value :  9.28465e-06
 Reference value :  9.29792e-06
 Reference value :  9.32445e-06
 Reference value :  9.37751e-06
 Reference value :  9.48364e-06
 Reference value :  9.50000e-06
 Reference value :  9.50001e-06
 Reference value :  9.50003e-06
 Reference value :  9.50007e-06
 Reference value :  9.50010e-06
 Reference value :  9.50010e-06
 Reference value :  9.50011e-06
 Reference value :  9.50013e-06
 Reference value :  9.50016e-06
 Reference value :  9.50023e-06
 Reference value :  9.50037e-06
 Reference value :  9.50056e-06
 Reference value :  9.50093e-06
 Reference value :  9.50144e-06
 Reference value :  9.50199e-06
 Reference value :  9.50257e-06
 Reference value :  9.50322e-06
 Reference value :  9.50389e-06
 Reference value :  9.50467e-06
 Reference value :  9.50550e-06
 Reference value :  9.50637e-06
 Reference value :  9.50719e-06
 Reference value :  9.50802e-06
 Reference value :  9.50895e-06
 Reference value :  9.50984e-06
 Reference value :  9.51109e-06
 Reference value :  9.51275e-06
 Reference value :  9.51546e-06
 Reference value :  9.51722e-06
 Reference value :  9.51917e-06
 Reference value :  9.52104e-06
 Reference value :  9.52255e-06
 Reference value :  9.52403e-06
 Reference value :  9.52538e-06
 Reference value :  9.52682e-06
 Reference value :  9.52849e-06
 Reference value :  9.53051e-06
 Reference value :  9.53190e-06
 Reference value :  9.53335e-06
 Reference value :  9.53503e-06
 Reference value :  9.53684e-06
 Reference value :  9.53927e-06
 Reference value :  9.54298e-06
 Reference value :  9.54805e-06
 Reference value :  9.55633e-06
 Reference value :  9.56935e-06
 Reference value :  9.58265e-06
 Reference value :  9.60239e-06
 Reference value :  9.62899e-06
 Reference value :  9.67202e-06
 Reference value :  9.74278e-06
 Reference value :  9.75010e-06
 Reference value :  9.75011e-06
 Reference value :  9.75013e-06
 Reference value :  9.75017e-06
 Reference value :  9.75020e-06
 Reference value :  9.75020e-06
 Reference value :  9.75020e-06
 Reference value :  9.75021e-06
 Reference value :  9.75021e-06
 Reference value :  9.75022e-06
 Reference value :  9.75025e-06
 Reference value :  9.75030e-06
 Reference value :  9.75039e-06
 Reference value :  9.75059e-06
 Reference value :  9.75093e-06
 Reference value :  9.75147e-06
 Reference value :  9.75211e-06
 Reference value :  9.75276e-06
 Reference value :  9.75350e-06
 Reference value :  9.75453e-06
 Reference value :  9.75529e-06
 Reference value :  9.75614e-06
 Reference value :  9.75702e-06
 Reference value :  9.75795e-06
 Reference value :  9.75923e-06
 Reference value :  9.76109e-06
 Reference value :  9.76325e-06
 Reference value :  9.76650e-06
 Reference value :  9.77074e-06
 Reference value :  9.77922e-06
 Reference value :  9.79618e-06
 Reference value :  9.82501e-06
 Reference value :  9.88268e-06
 Reference value :  9.99117e-06
 Reference value :  1.00000e-05
 Reference value :  1.00000e-05
 Reference value :  1.00000e-05
 Reference value :  1.00001e-05
 Reference value :  1.00001e-05
 Reference value :  1.00001e-05
 Reference value :  1.00001e-05
 Reference value :  1.00001e-05
 Reference value :  1.00002e-05
 Reference value :  1.00002e-05
 Reference value :  1.00004e-05
 Reference value :  1.00005e-05
 Reference value :  1.00009e-05
 Reference value :  1.00014e-05
 Reference value :  1.00020e-05
 Reference value :  1.00025e-05
 Reference value :  1.00032e-05
 Reference value :  1.00039e-05
 Reference value :  1.00046e-05
 Reference value :  1.00055e-05
 Reference value :  1.00064e-05
 Reference value :  1.00076e-05
 Reference value :  1.00088e-05
 Reference value :  1.00101e-05
 Reference value :  1.00115e-05
 Reference value :  1.00130e-05
 Reference value :  1.00146e-05
 Reference value :  1.00163e-05
 Reference value :  1.00180e-05
 Reference value :  1.00199e-05
 Reference value :  1.00237e-05
 Reference value :  1.00312e-05
 Reference value :  1.00443e-05
 Reference value :  1.00705e-05
 Reference value :  1.01229e-05
 Reference value :  1.02277e-05
 Reference value :  1.02501e-05
 Reference value :  1.02501e-05
 Reference value :  1.02501e-05
 Reference value :  1.02502e-05
 Reference value :  1.02502e-05
 Reference value :  1.02502e-05
 Reference value :  1.02502e-05
 Reference value :  1.02502e-05
 Reference value :  1.02502e-05
 Reference value :  1.02502e-05
 Reference value :  1.02502e-05
 Reference value :  1.02503e-05
 Reference value :  1.02504e-05
 Reference value :  1.02506e-05
 Reference value :  1.02509e-05
 Reference value :  1.02515e-05
 Reference value :  1.02521e-05
 Reference value :  1.02528e-05
 Reference value :  1.02535e-05
 Reference value :  1.02545e-05
 Reference value :  1.02552e-05
 Reference value :  1.02561e-05
 Reference value :  1.02568e-05
 Reference value :  1.02577e-05
 Reference value :  1.02587e-05
 Reference value :  1.02598e-05
 Reference value :  1.02620e-05
 Reference value :  1.02644e-05
 Reference value :  1.02684e-05
 Reference value :  1.02734e-05
 Reference value :  1.02833e-05
 Reference value :  1.03032e-05
 Reference value :  1.03417e-05
 Reference value :  1.04187e-05
 Reference value :  1.05000e-05
 Reference value :  1.05000e-05
 Reference value :  1.05000e-05
 Reference value :  1.05001e-05
 Reference value :  1.05001e-05
 Reference value :  1.05001e-05
 Reference value :  1.05001e-05
 Reference value :  1.05001e-05
 Reference value :  1.05002e-05
 Reference value :  1.05002e-05
 Reference value :  1.05004e-05
 Reference value :  1.05005e-05
 Reference value :  1.05009e-05
 Reference value :  1.05014e-05
 Reference value :  1.05020e-05
 Reference value :  1.05025e-05
 Reference value :  1.05032e-05
 Reference value :  1.05039e-05
 Reference value :  1.05046e-05
 Reference value :  1.05055e-05
 Reference value :  1.05064e-05
 Reference value :  1.05073e-05
 Reference value :  1.05081e-05
 Reference value :  1.05090e-05
 Reference value :  1.05100e-05
 Reference value :  1.05112e-05
 Reference value :  1.05129e-05
 Reference value :  1.05156e-05
 Reference value :  1.05181e-05
 Reference value :  1.05202e-05
 Reference value :  1.05220e-05
 Reference value :  1.05237e-05
 Reference value :  1.05256e-05
 Reference value :  1.05273e-05
 Reference value :  1.05295e-05
 Reference value :  1.05316e-05
 Reference value :  1.05343e-05
 Reference value :  1.05381e-05
 Reference value :  1.05434e-05
 Reference value :  1.05520e-05
 Reference value :  1.05655e-05
 Reference value :  1.05874e-05
 Reference value :  1.06196e-05
 Reference value :  1.06756e-05
 Reference value :  1.07407e-05
 Reference value :  1.07501e-05
 Reference value :  1.07501e-05
 Reference value :  1.07501e-05
 Reference value :  1.07502e-05
 Reference value :  1.07502e-05
 Reference value :  1.07502e-05
 Reference value :  1.07502e-05
 Reference value :  1.07502e-05
 Reference value :  1.07502e-05
 Reference value :  1.07502e-05
 Reference value :  1.07502e-05
 Reference value :  1.07503e-05
 Reference value :  1.07504e-05
 Reference value :  1.07506e-05
 Reference value :  1.07509e-05
 Reference value :  1.07515e-05
 Reference value :  1.07521e-05
 Reference value :  1.07528e-05
 Reference value :  1.07535e-05
 Reference value :  1.07545e-05
 Reference value :  1.07553e-05
 Reference value :  1.07561e-05
 Reference value :  1.07570e-05
 Reference value :  1.07579e-05
 Reference value :  1.07592e-05
 Reference value :  1.07610e-05
 Reference value :  1.07632e-05
 Reference value :  1.07664e-05
 Reference value :  1.07707e-05
 Reference value :  1.07792e-05
 Reference value :  1.07961e-05
 Reference value :  1.08248e-05
 Reference value :  1.08822e-05
 Reference value :  1.09746e-05
 Reference value :  1.10000e-05
 Reference value :  1.10000e-05
 Reference value :  1.10000e-05
 Reference value :  1.10001e-05
 Reference value :  1.10001e-05
 Reference value :  1.10001e-05
 Reference value :  1.10001e-05
 Reference value :  1.10001e-05
 Reference value :  1.10002e-05
 Reference value :  1.10002e-05
 Reference value :  1.10004e-05
 Reference value :  1.10005e-05
 Reference value :  1.10009e-05
 Reference value :  1.10014e-05
 Reference value :  1.10020e-05
 Reference value :  1.10025e-05
 Reference value :  1.10032e-05
 Reference value :  1.10039e-05
 Reference value :  1.10046e-05
 Reference value :  1.10055e-05
 Reference value :  1.10064e-05
 Reference value :  1.10076e-05
 Reference value :  1.10088e-05
 Reference value :  1.10101e-05
 Reference value :  1.10115e-05
 Reference value :  1.10130e-05
 Reference value :  1.10146e-05
 Reference value :  1.10162e-05
 Reference value :  1.10178e-05
 Reference value :  1.10197e-05
 Reference value :  1.10234e-05
 Reference value :  1.10307e-05
 Reference value :  1.10438e-05
 Reference value :  1.10699e-05
 Reference value :  1.11221e-05
 Reference value :  1.12266e-05
 Reference value :  1.12501e-05
 Reference value :  1.12501e-05
 Reference value :  1.12501e-05
 Reference value :  1.12502e-05
 Reference value :  1.12502e-05
 Reference value :  1.12502e-05
 Reference value :  1.12502e-05
 Reference value :  1.12502e-05
 Reference value :  1.12502e-05
 Reference value :  1.12502e-05
 Reference value :  1.12502e-05
 Reference value :  1.12503e-05
 Reference value :  1.12504e-05
 Reference value :  1.12506e-05
 Reference value :  1.12509e-05
 Reference value :  1.12515e-05
 Reference value :  1.12521e-05
 Reference value :  1.12527e-05
 Reference value :  1.12535e-05
 Reference value :  1.12545e-05
 Reference value :  1.12552e-05
 Reference value :  1.12561e-05
 Reference value :  1.12568e-05
 Reference value :  1.12577e-05
 Reference value :  1.12587e-05
 Reference value :  1.12598e-05
 Reference value :  1.12620e-05
 Reference value :  1.12644e-05
 Reference value :  1.12684e-05
 Reference value :  1.12733e-05
 Reference value :  1.12832e-05
 Reference value :  1.13030e-05
 Reference value :  1.13412e-05
 Reference value :  1.14175e-05
 Reference value :  1.15000e-05
 Reference value :  1.15000e-05
 Reference value :  1.15000e-05
 Reference value :  1.15001e-05
 Reference value :  1.15001e-05
 Reference value :  1.15001e-05
 Reference value :  1.15001e-05
 Reference value :  1.15001e-05
 Reference value :  1.15002e-05
 Reference value :  1.15002e-05
 Reference value :  1.15004e-05
 Reference value :  1.15005e-05
 Reference value :  1.15009e-05
 Reference value :  1.15014e-05
 Reference value :  1.15020e-05
 Reference value :  1.15025e-05
 Reference value :  1.15032e-05
 Reference value :  1.15039e-05
 Reference value :  1.15046e-05
 Reference value :  1.15054e-05
 Reference value :  1.15063e-05
 Reference value :  1.15072e-05
 Reference value :  1.15081e-05
 Reference value :  1.15090e-05
 Reference value :  1.15099e-05
 Reference value :  1.15112e-05
 Reference value :  1.15128e-05
 Reference value :  1.15155e-05
 Reference value :  1.15179e-05
 Reference value :  1.15201e-05
 Reference value :  1.15218e-05
 Reference value :  1.15234e-05
 Reference value :  1.15252e-05
 Reference value :  1.15269e-05
 Reference value :  1.15288e-05
 Reference value :  1.15308e-05
 Reference value :  1.15337e-05
 Reference value :  1.15374e-05
 Reference value :  1.15440e-05
 Reference value :  1.15550e-05
 Reference value :  1.15724e-05
 Reference value :  1.15988e-05
 Reference value :  1.16491e-05
 Reference value :  1.16938e-05
 Reference value :  1.17406e-05
 Reference value :  1.17501e-05
 Reference value :  1.17501e-05
 Reference value :  1.17501e-05
 Reference value :  1.17502e-05
 Reference value :  1.17502e-05
 Reference value :  1.17502e-05
 Reference value :  1.17502e-05
 Reference value :  1.17502e-05
 Reference value :  1.17502e-05
 Reference value :  1.17502e-05
 Reference value :  1.17502e-05
 Reference value :  1.17503e-05
 Reference value :  1.17504e-05
 Reference value :  1.17506e-05
 Reference value :  1.17509e-05
 Reference value :  1.17515e-05
 Reference value :  1.17521e-05
 Reference value :  1.17528e-05
 Reference value :  1.17535e-05
 Reference value :  1.17545e-05
 Reference value :  1.17553e-05
 Reference value :  1.17561e-05
 Reference value :  1.17570e-05
 Reference value :  1.17579e-05
 Reference value :  1.17592e-05
 Reference value :  1.17610e-05
 Reference value :  1.17632e-05
 Reference value :  1.17664e-05
 Reference value :  1.17707e-05
 Reference value :  1.17792e-05
 Reference value :  1.17960e-05
 Reference value :  1.18247e-05
 Reference value :  1.18821e-05
 Reference value :  1.19882e-05
 Reference value :  1.20000e-05
 Reference value :  1.20000e-05
 Reference value :  1.20000e-05
 Reference value :  1.20001e-05
 Reference value :  1.20001e-05
 Reference value :  1.20001e-05
 Reference value :  1.20001e-05
 Reference value :  1.20001e-05
 Reference value :  1.20002e-05
 Reference value :  1.20002e-05
 Reference value :  1.20004e-05
 Reference value :  1.20005e-05
 Reference value :  1.20009e-05
 Reference value :  1.20014e-05
 Reference value :  1.20020e-05
 Reference value :  1.20025e-05
 Reference value :  1.20032e-05
 Reference value :  1.20039e-05
 Reference value :  1.20046e-05
 Reference value :  1.20055e-05
 Reference value :  1.20063e-05
 Reference value :  1.20075e-05
 Reference value :  1.20087e-05
 Reference value :  1.20100e-05
 Reference value :  1.20115e-05
 Reference value :  1.20129e-05
 Reference value :  1.20143e-05
 Reference value :  1.20158e-05
 Reference value :  1.20173e-05
 Reference value :  1.20191e-05
 Reference value :  1.20225e-05
 Reference value :  1.20286e-05
 Reference value :  1.20409e-05
 Reference value :  1.20653e-05
 Reference value :  1.21143e-05
 Reference value :  1.22121e-05
 Reference value :  1.22501e-05
 Reference value :  1.22501e-05
 Reference value :  1.22501e-05
 Reference value :  1.22502e-05
 Reference value :  1.22502e-05
 Reference value :  1.22502e-05
 Reference value :  1.22502e-05
 Reference value :  1.22502e-05
 Reference value :  1.22502e-05
 Reference value :  1.22502e-05
 Reference value :  1.22502e-05
 Reference value :  1.22503e-05
 Reference value :  1.22504e-05
 Reference value :  1.22506e-05
 Reference value :  1.22509e-05
 Reference value :  1.22515e-05
 Reference value :  1.22521e-05
 Reference value :  1.22527e-05
 Reference value :  1.22535e-05
 Reference value :  1.22545e-05
 Reference value :  1.22552e-05
 Reference value :  1.22561e-05
 Reference value :  1.22568e-05
 Reference value :  1.22577e-05
 Reference value :  1.22587e-05
 Reference value :  1.22598e-05
 Reference value :  1.22620e-05
 Reference value :  1.22644e-05
 Reference value :  1.22683e-05
 Reference value :  1.22733e-05
 Reference value :  1.22831e-05
 Reference value :  1.23028e-05
 Reference value :  1.23407e-05
 Reference value :  1.24166e-05
 Reference value :  1.25000e-05
 Reference value :  1.25000e-05
 Reference value :  1.25000e-05
 Reference value :  1.25001e-05
 Reference value :  1.25001e-05
 Reference value :  1.25001e-05
 Reference value :  1.25001e-05
 Reference value :  1.25001e-05
 Reference value :  1.25002e-05
 Reference value :  1.25002e-05
 Reference value :  1.25004e-05
 Reference value :  1.25005e-05
 Reference value :  1.25009e-05
 Reference value :  1.25014e-05
 Reference value :  1.25020e-05
 Reference value :  1.25025e-05
 Reference value :  1.25032e-05
 Reference value :  1.25039e-05
 Reference value :  1.25046e-05
 Reference value :  1.25054e-05
 Reference value :  1.25064e-05
 Reference value :  1.25073e-05
 Reference value :  1.25081e-05
 Reference value :  1.25090e-05
 Reference value :  1.25100e-05
 Reference value :  1.25112e-05
 Reference value :  1.25129e-05
 Reference value :  1.25153e-05
 Reference value :  1.25179e-05
 Reference value :  1.25200e-05
 Reference value :  1.25217e-05
 Reference value :  1.25234e-05
 Reference value :  1.25252e-05
 Reference value :  1.25269e-05
 Reference value :  1.25289e-05
 Reference value :  1.25309e-05
 Reference value :  1.25336e-05
 Reference value :  1.25373e-05
 Reference value :  1.25432e-05
 Reference value :  1.25532e-05
 Reference value :  1.25696e-05
 Reference value :  1.25977e-05
 Reference value :  1.26264e-05
 Reference value :  1.26572e-05
 Reference value :  1.26909e-05
 Reference value :  1.27290e-05
 Reference value :  1.27501e-05
 Reference value :  1.27501e-05
 Reference value :  1.27501e-05
 Reference value :  1.27502e-05
 Reference value :  1.27502e-05
 Reference value :  1.27502e-05
 Reference value :  1.27502e-05
 Reference value :  1.27502e-05
 Reference value :  1.27502e-05
 Reference value :  1.27502e-05
 Reference value :  1.27502e-05
 Reference value :  1.27503e-05
 Reference value :  1.27504e-05
 Reference value :  1.27506e-05
 Reference value :  1.27509e-05
 Reference value :  1.27515e-05
 Reference value :  1.27521e-05
 Reference value :  1.27527e-05
 Reference value :  1.27535e-05
 Reference value :  1.27545e-05
 Reference value :  1.27552e-05
 Reference value :  1.27561e-05
 Reference value :  1.27570e-05
 Reference value :  1.27579e-05
 Reference value :  1.27592e-05
 Reference value :  1.27610e-05
 Reference value :  1.27632e-05
 Reference value :  1.27663e-05
 Reference value :  1.27707e-05
 Reference value :  1.27794e-05
 Reference value :  1.27958e-05
 Reference value :  1.28247e-05
 Reference value :  1.28820e-05
 Reference value :  1.29966e-05
 Reference value :  1.30000e-05
 Reference value :  1.30000e-05
 Reference value :  1.30000e-05
 Reference value :  1.30001e-05
 Reference value :  1.30001e-05
 Reference value :  1.30001e-05
 Reference value :  1.30001e-05
 Reference value :  1.30001e-05
 Reference value :  1.30002e-05
 Reference value :  1.30002e-05
 Reference value :  1.30004e-05
 Reference value :  1.30005e-05
 Reference value :  1.30009e-05
 Reference value :  1.30014e-05
 Reference value :  1.30020e-05
 Reference value :  1.30025e-05
 Reference value :  1.30032e-05
 Reference value :  1.30039e-05
 Reference value :  1.30046e-05
 Reference value :  1.30055e-05
 Reference value :  1.30063e-05
 Reference value :  1.30075e-05
 Reference value :  1.30087e-05
 Reference value :  1.30099e-05
 Reference value :  1.30113e-05
 Reference value :  1.30128e-05
 Reference value :  1.30143e-05
 Reference value :  1.30158e-05
 Reference value :  1.30174e-05
 Reference value :  1.30191e-05
 Reference value :  1.30223e-05
 Reference value :  1.30271e-05
 Reference value :  1.30367e-05
 Reference value :  1.30553e-05
 Reference value :  1.30917e-05
 Reference value :  1.31645e-05
 Reference value :  1.32501e-05
 Reference value :  1.32501e-05
 Reference value :  1.32501e-05
 Reference value :  1.32502e-05
 Reference value :  1.32502e-05
 Reference value :  1.32502e-05
 Reference value :  1.32502e-05
 Reference value :  1.32502e-05
 Reference value :  1.32502e-05
 Reference value :  1.32502e-05
 Reference value :  1.32502e-05
 Reference value :  1.32503e-05
 Reference value :  1.32504e-05
 Reference value :  1.32506e-05
 Reference value :  1.32509e-05
 Reference value :  1.32515e-05
 Reference value :  1.32521e-05
 Reference value :  1.32527e-05
 Reference value :  1.32535e-05
 Reference value :  1.32545e-05
 Reference value :  1.32552e-05
 Reference value :  1.32561e-05
 Reference value :  1.32568e-05
 Reference value :  1.32576e-05
 Reference value :  1.32586e-05
 Reference value :  1.32598e-05
 Reference value :  1.32620e-05
 Reference value :  1.32643e-05
 Reference value :  1.32683e-05
 Reference value :  1.32732e-05
 Reference value :  1.32830e-05
 Reference value :  1.33025e-05
 Reference value :  1.33401e-05
 Reference value :  1.34152e-05
 Reference value :  1.35000e-05
 Reference value :  1.35000e-05
 Reference value :  1.35000e-05
 Reference value :  1.35001e-05
 Reference value :  1.35001e-05
 Reference value :  1.35001e-05
 Reference value :  1.35001e-05
 Reference value :  1.35001e-05
 Reference value :  1.35002e-05
 Reference value :  1.35002e-05
 Reference value :  1.35004e-05
 Reference value :  1.35005e-05
 Reference value :  1.35009e-05
 Reference value :  1.35014e-05
 Reference value :  1.35020e-05
 Reference value :  1.35025e-05
 Reference value :  1.35032e-05
 Reference value :  1.35039e-05
 Reference value :  1.35047e-05
 Reference value :  1.35055e-05
 Reference value :  1.35064e-05
 Reference value :  1.35073e-05
 Reference value :  1.35081e-05
 Reference value :  1.35090e-05
 Reference value :  1.35100e-05
 Reference value :  1.35111e-05
 Reference value :  1.35130e-05
 Reference value :  1.35155e-05
 Reference value :  1.35180e-05
 Reference value :  1.35202e-05
 Reference value :  1.35219e-05
 Reference value :  1.35235e-05
 Reference value :  1.35251e-05
 Reference value :  1.35268e-05
 Reference value :  1.35287e-05
 Reference value :  1.35307e-05
 Reference value :  1.35334e-05
 Reference value :  1.35371e-05
 Reference value :  1.35432e-05
 Reference value :  1.35532e-05
 Reference value :  1.35700e-05
 Reference value :  1.35867e-05
 Reference value :  1.36025e-05
 Reference value :  1.36249e-05
 Reference value :  1.36511e-05
 Reference value :  1.36884e-05
 Reference value :  1.37486e-05
 Reference value :  1.37501e-05
 Reference value :  1.37501e-05
 Reference value :  1.37501e-05
 Reference value :  1.37502e-05
 Reference value :  1.37502e-05
 Reference value :  1.37502e-05
 Reference value :  1.37502e-05
 Reference value :  1.37502e-05
 Reference value :  1.37502e-05
 Reference value :  1.37502e-05
 Reference value :  1.37502e-05
 Reference value :  1.37503e-05
 Reference value :  1.37504e-05
 Reference value :  1.37506e-05
 Reference value :  1.37509e-05
 Reference value :  1.37515e-05
 Reference value :  1.37521e-05
 Reference value :  1.37528e-05
 Reference value :  1.37535e-05
 Reference value :  1.37545e-05
 Reference value :  1.37553e-05
 Reference value :  1.37561e-05
 Reference value :  1.37570e-05
 Reference value :  1.37579e-05
 Reference value :  1.37592e-05
 Reference value :  1.37610e-05
 Reference value :  1.37632e-05
 Reference value :  1.37664e-05
 Reference value :  1.37707e-05
 Reference value :  1.37793e-05
 Reference value :  1.37959e-05
 Reference value :  1.38246e-05
 Reference value :  1.38818e-05
 Reference value :  1.39910e-05
 Reference value :  1.40000e-05
 Reference value :  1.40000e-05
 Reference value :  1.40000e-05
 Reference value :  1.40001e-05
 Reference value :  1.40001e-05
 Reference value :  1.40001e-05
 Reference value :  1.40001e-05
 Reference value :  1.40001e-05
 Reference value :  1.40002e-05
 Reference value :  1.40002e-05
 Reference value :  1.40004e-05
 Reference value :  1.40005e-05
 Reference value :  1.40009e-05
 Reference value :  1.40014e-05
 Reference value :  1.40020e-05
 Reference value :  1.40025e-05
 Reference value :  1.40032e-05
 Reference value :  1.40039e-05
 Reference value :  1.40046e-05
 Reference value :  1.40055e-05
 Reference value :  1.40064e-05
 Reference value :  1.40076e-05
 Reference value :  1.40088e-05
 Reference value :  1.40100e-05
 Reference value :  1.40113e-05
 Reference value :  1.40127e-05
 Reference value :  1.40141e-05
 Reference value :  1.40155e-05
 Reference value :  1.40170e-05
 Reference value :  1.40187e-05
 Reference value :  1.40220e-05
 Reference value :  1.40270e-05
 Reference value :  1.40369e-05
 Reference value :  1.40568e-05
 Reference value :  1.40965e-05
 Reference value :  1.41758e-05
 Reference value :  1.42501e-05
 Reference value :  1.42501e-05
 Reference value :  1.42501e-05
 Reference value :  1.42502e-05
 Reference value :  1.42502e-05
 Reference value :  1.42502e-05
 Reference value :  1.42502e-05
 Reference value :  1.42502e-05
 Reference value :  1.42502e-05
 Reference value :  1.42502e-05
 Reference value :  1.42502e-05
 Reference value :  1.42503e-05
 Reference value :  1.42504e-05
 Reference value :  1.42506e-05
 Reference value :  1.42509e-05
 Reference value :  1.42515e-05
 Reference value :  1.42521e-05
 Reference value :  1.42527e-05
 Reference value :  1.42535e-05
 Reference value :  1.42545e-05
 Reference value :  1.42552e-05
 Reference value :  1.42561e-05
 Reference value :  1.42568e-05
 Reference value :  1.42577e-05
 Reference value :  1.42587e-05
 Reference value :  1.42598e-05
 Reference value :  1.42620e-05
 Reference value :  1.42644e-05
 Reference value :  1.42683e-05
 Reference value :  1.42733e-05
 Reference value :  1.42831e-05
 Reference value :  1.43028e-05
 Reference value :  1.43407e-05
 Reference value :  1.44164e-05
 Reference value :  1.45000e-05
 Reference value :  1.45000e-05
 Reference value :  1.45000e-05
 Reference value :  1.45001e-05
 Reference value :  1.45001e-05
 Reference value :  1.45001e-05
 Reference value :  1.45001e-05
 Reference value :  1.45001e-05
 Reference value :  1.45002e-05
 Reference value :  1.45002e-05
 Reference value :  1.45004e-05
 Reference value :  1.45005e-05
 Reference value :  1.45009e-05
 Reference value :  1.45014e-05
 Reference value :  1.45020e-05
 Reference value :  1.45025e-05
 Reference value :  1.45032e-05
 Reference value :  1.45039e-05
 Reference value :  1.45046e-05
 Reference value :  1.45055e-05
 Reference value :  1.45063e-05
 Reference value :  1.45072e-05
 Reference value :  1.45080e-05
 Reference value :  1.45089e-05
 Reference value :  1.45099e-05
 Reference value :  1.45110e-05
 Reference value :  1.45129e-05
 Reference value :  1.45153e-05
 Reference value :  1.45180e-05
 Reference value :  1.45203e-05
 Reference value :  1.45221e-05
 Reference value :  1.45238e-05
 Reference value :  1.45254e-05
 Reference value :  1.45271e-05
 Reference value :  1.45291e-05
 Reference value :  1.45312e-05
 Reference value :  1.45338e-05
 Reference value :  1.45376e-05
 Reference value :  1.45431e-05
 Reference value :  1.45517e-05
 Reference value :  1.45606e-05
 Reference value :  1.45722e-05
 Reference value :  1.45841e-05
 Reference value :  1.45968e-05
 Reference value :  1.46118e-05
 Reference value :  1.46305e-05
 Reference value :  1.46519e-05
 Reference value :  1.46751e-05
 Reference value :  1.47046e-05
 Reference value :  1.47501e-05
 Reference value :  1.47501e-05
 Reference value :  1.47501e-05
 Reference value :  1.47502e-05
 Reference value :  1.47502e-05
 Reference value :  1.47502e-05
 Reference value :  1.47502e-05
 Reference value :  1.47502e-05
 Reference value :  1.47502e-05
 Reference value :  1.47502e-05
 Reference value :  1.47502e-05
 Reference value :  1.47503e-05
 Reference value :  1.47504e-05
 Reference value :  1.47506e-05
 Reference value :  1.47509e-05
 Reference value :  1.47515e-05
 Reference value :  1.47521e-05
 Reference value :  1.47528e-05
 Reference value :  1.47535e-05
 Reference value :  1.47545e-05
 Reference value :  1.47553e-05
 Reference value :  1.47561e-05
 Reference value :  1.47570e-05
 Reference value :  1.47579e-05
 Reference value :  1.47592e-05
 Reference value :  1.47610e-05
 Reference value :  1.47632e-05
 Reference value :  1.47664e-05
 Reference value :  1.47707e-05
 Reference value :  1.47793e-05
 Reference value :  1.47960e-05
 Reference value :  1.48247e-05
 Reference value :  1.48820e-05
 Reference value :  1.49873e-05
 Reference value :  1.50000e-05
 Reference value :  1.50000e-05
 Reference value :  1.50000e-05
 Reference value :  1.50001e-05
 Reference value :  1.50001e-05
 Reference value :  1.50001e-05
 Reference value :  1.50001e-05
 Reference value :  1.50001e-05
 Reference value :  1.50002e-05
 Reference value :  1.50002e-05
 Reference value :  1.50004e-05
 Reference value :  1.50005e-05
 Reference value :  1.50009e-05
 Reference value :  1.50014e-05
 Reference value :  1.50020e-05
 Reference value :  1.50025e-05
 Reference value :  1.50032e-05
 Reference value :  1.50039e-05
 Reference value :  1.50046e-05
 Reference value :  1.50055e-05
 Reference value :  1.50063e-05
 Reference value :  1.50075e-05
 Reference value :  1.50087e-05
 Reference value :  1.50100e-05
 Reference value :  1.50115e-05
 Reference value :  1.50129e-05
 Reference value :  1.50143e-05
 Reference value :  1.50158e-05
 Reference value :  1.50174e-05
 Reference value :  1.50193e-05
 Reference value :  1.50226e-05
 Reference value :  1.50275e-05
 Reference value :  1.50372e-05
 Reference value :  1.50553e-05
 Reference value :  1.50895e-05
 Reference value :  1.51580e-05
 Reference value :  1.52501e-05
 Reference value :  1.52501e-05
 Reference value :  1.52501e-05
 Reference value :  1.52502e-05
 Reference value :  1.52502e-05
 Reference value :  1.52502e-05
 Reference value :  1.52502e-05
 Reference value :  1.52502e-05
 Reference value :  1.52502e-05
 Reference value :  1.52502e-05
 Reference value :  1.52502e-05
 Reference value :  1.52503e-05
 Reference value :  1.52504e-05
 Reference value :  1.52506e-05
 Reference value :  1.52509e-05
 Reference value :  1.52515e-05
 Reference value :  1.52521e-05
 Reference value :  1.52527e-05
 Reference value :  1.52535e-05
 Reference value :  1.52545e-05
 Reference value :  1.52552e-05
 Reference value :  1.52561e-05
 Reference value :  1.52568e-05
 Reference value :  1.52577e-05
 Reference value :  1.52587e-05
 Reference value :  1.52598e-05
 Reference value :  1.52620e-05
 Reference value :  1.52644e-05
 Reference value :  1.52683e-05
 Reference value :  1.52733e-05
 Reference value :  1.52831e-05
 Reference value :  1.53028e-05
 Reference value :  1.53407e-05
 Reference value :  1.54166e-05
 Reference value :  1.55000e-05
 Reference value :  1.55012e-05
 Reference value :  1.55036e-05
 Reference value :  1.55048e-05
 Reference value :  1.55060e-05
 Reference value :  1.55070e-05
 Reference value :  1.55082e-05
 Reference value :  1.55090e-05
 Reference value :  1.55100e-05
 Reference value :  1.55115e-05
 Reference value :  1.55129e-05
 Reference value :  1.55156e-05
 Reference value :  1.55185e-05
 Reference value :  1.55206e-05
 Reference value :  1.55226e-05
 Reference value :  1.55244e-05
 Reference value :  1.55262e-05
 Reference value :  1.55279e-05
 Reference value :  1.55299e-05
 Reference value :  1.55319e-05
 Reference value :  1.55348e-05
 Reference value :  1.55386e-05
 Reference value :  1.55437e-05
 Reference value :  1.55493e-05
 Reference value :  1.55559e-05
 Reference value :  1.55627e-05
 Reference value :  1.55683e-05
 Reference value :  1.55743e-05
 Reference value :  1.55813e-05
 Reference value :  1.55954e-05
 Reference value :  1.56077e-05
 Reference value :  1.56221e-05
 Reference value :  1.56360e-05
 Reference value :  1.56639e-05
 Reference value :  1.57171e-05
 Reference value :  1.57501e-05
 Reference value :  1.57501e-05
 Reference value :  1.57501e-05
 Reference value :  1.57502e-05
 Reference value :  1.57502e-05
 Reference value :  1.57502e-05
 Reference value :  1.57502e-05
 Reference value :  1.57502e-05
 Reference value :  1.57502e-05
 Reference value :  1.57502e-05
 Reference value :  1.57502e-05
 Reference value :  1.57503e-05
 Reference value :  1.57504e-05
 Reference value :  1.57506e-05
 Reference value :  1.57509e-05
 Reference value :  1.57515e-05
 Reference value :  1.57521e-05
 Reference value :  1.57528e-05
 Reference value :  1.57535e-05
 Reference value :  1.57545e-05
 Reference value :  1.57552e-05
 Reference value :  1.57560e-05
 Reference value :  1.57570e-05
 Reference value :  1.57579e-05
 Reference value :  1.57592e-05
 Reference value :  1.57613e-05
 Reference value :  1.57634e-05
 Reference value :  1.57668e-05
 Reference value :  1.57709e-05
 Reference value :  1.57793e-05
 Reference value :  1.57959e-05
 Reference value :  1.58238e-05
 Reference value :  1.58798e-05
 Reference value :  1.59916e-05
 Reference value :  1.60000e-05
 Reference value :  1.60000e-05
 Reference value :  1.60000e-05
 Reference value :  1.60001e-05
 Reference value :  1.60001e-05
 Reference value :  1.60001e-05
 Reference value :  1.60001e-05
 Reference value :  1.60001e-05
 Reference value :  1.60002e-05
 Reference value :  1.60002e-05
 Reference value :  1.60004e-05
 Reference value :  1.60005e-05
 Reference value :  1.60009e-05
 Reference value :  1.60014e-05
 Reference value :  1.60020e-05
 Reference value :  1.60025e-05
 Reference value :  1.60032e-05
 Reference value :  1.60038e-05
 Reference value :  1.60046e-05
 Reference value :  1.60054e-05
 Reference value :  1.60063e-05
 Reference value :  1.60076e-05
 Reference value :  1.60088e-05
 Reference value :  1.60102e-05
 Reference value :  1.60117e-05
 Reference value :  1.60131e-05
 Reference value :  1.60145e-05
 Reference value :  1.60160e-05
 Reference value :  1.60175e-05
 Reference value :  1.60193e-05
 Reference value :  1.60227e-05
 Reference value :  1.60277e-05
 Reference value :  1.60375e-05
 Reference value :  1.60571e-05
 Reference value :  1.60941e-05
 Reference value :  1.61681e-05
[...]
 Reference value :  2.68000e-04
 Reference value :  2.68000e-04
 Reference value :  2.68000e-04
 Reference value :  2.68000e-04
 Reference value :  2.68000e-04
 Reference value :  2.68001e-04
 Reference value :  2.68001e-04
 Reference value :  2.68001e-04
 Reference value :  2.68002e-04
 Reference value :  2.68003e-04
 Reference value :  2.68003e-04
 Reference value :  2.68004e-04
 Reference value :  2.68005e-04
 Reference value :  2.68005e-04
 Reference value :  2.68006e-04
 Reference value :  2.68008e-04
 Reference value :  2.68009e-04
 Reference value :  2.68010e-04
 Reference value :  2.68011e-04
 Reference value :  2.68013e-04
 Reference value :  2.68014e-04
 Reference value :  2.68016e-04
 Reference value :  2.68017e-04
 Reference value :  2.68019e-04
 Reference value :  2.68022e-04
 Reference value :  2.68027e-04
 Reference value :  2.68037e-04
 Reference value :  2.68057e-04
 Reference value :  2.68094e-04
 Reference value :  2.68168e-04
 Reference value :  2.68250e-04
 Reference value :  2.68250e-04
 Reference value :  2.68250e-04
 Reference value :  2.68250e-04
 Reference value :  2.68250e-04
 Reference value :  2.68250e-04
 Reference value :  2.68250e-04
 Reference value :  2.68250e-04
 Reference value :  2.68250e-04
 Reference value :  2.68250e-04
 Reference value :  2.68250e-04
 Reference value :  2.68250e-04
 Reference value :  2.68250e-04
 Reference value :  2.68251e-04
 Reference value :  2.68251e-04
 Reference value :  2.68251e-04
 Reference value :  2.68252e-04
 Reference value :  2.68253e-04
 Reference value :  2.68253e-04
 Reference value :  2.68254e-04
 Reference value :  2.68255e-04
 Reference value :  2.68256e-04
 Reference value :  2.68257e-04
 Reference value :  2.68258e-04
 Reference value :  2.68259e-04
 Reference value :  2.68260e-04
 Reference value :  2.68261e-04
 Reference value :  2.68263e-04
 Reference value :  2.68264e-04
 Reference value :  2.68267e-04
 Reference value :  2.68270e-04
 Reference value :  2.68275e-04
 Reference value :  2.68284e-04
 Reference value :  2.68299e-04
 Reference value :  2.68329e-04
 Reference value :  2.68390e-04
 Reference value :  2.68500e-04
 Reference value :  2.68500e-04
 Reference value :  2.68500e-04
 Reference value :  2.68500e-04
 Reference value :  2.68500e-04
 Reference value :  2.68500e-04
 Reference value :  2.68500e-04
 Reference value :  2.68500e-04
 Reference value :  2.68500e-04
 Reference value :  2.68500e-04
 Reference value :  2.68500e-04
 Reference value :  2.68501e-04
 Reference value :  2.68501e-04
 Reference value :  2.68501e-04
 Reference value :  2.68502e-04
 Reference value :  2.68503e-04
 Reference value :  2.68503e-04
 Reference value :  2.68504e-04
 Reference value :  2.68505e-04
 Reference value :  2.68505e-04
 Reference value :  2.68506e-04
 Reference value :  2.68507e-04
 Reference value :  2.68508e-04
 Reference value :  2.68509e-04
 Reference value :  2.68510e-04
 Reference value :  2.68511e-04
 Reference value :  2.68513e-04
 Reference value :  2.68514e-04
 Reference value :  2.68515e-04
 Reference value :  2.68517e-04
 Reference value :  2.68518e-04
 Reference value :  2.68520e-04
 Reference value :  2.68521e-04
 Reference value :  2.68522e-04
 Reference value :  2.68523e-04
 Reference value :  2.68525e-04
 Reference value :  2.68526e-04
 Reference value :  2.68528e-04
 Reference value :  2.68530e-04
 Reference value :  2.68533e-04
 Reference value :  2.68536e-04
 Reference value :  2.68543e-04
 Reference value :  2.68551e-04
 Reference value :  2.68558e-04
 Reference value :  2.68565e-04
 Reference value :  2.68571e-04
 Reference value :  2.68576e-04
 Reference value :  2.68580e-04
 Reference value :  2.68585e-04
 Reference value :  2.68594e-04
 Reference value :  2.68604e-04
 Reference value :  2.68620e-04
 Reference value :  2.68642e-04
 Reference value :  2.68665e-04
 Reference value :  2.68691e-04
 Reference value :  2.68732e-04
 Reference value :  2.68750e-04
 Reference value :  2.68750e-04
 Reference value :  2.68750e-04
 Reference value :  2.68750e-04
 Reference value :  2.68750e-04
 Reference value :  2.68750e-04
 Reference value :  2.68750e-04
 Reference value :  2.68750e-04
 Reference value :  2.68750e-04
 Reference value :  2.68750e-04
 Reference value :  2.68750e-04
 Reference value :  2.68750e-04
 Reference value :  2.68750e-04
 Reference value :  2.68751e-04
 Reference value :  2.68751e-04
 Reference value :  2.68751e-04
 Reference value :  2.68752e-04
 Reference value :  2.68753e-04
 Reference value :  2.68753e-04
 Reference value :  2.68754e-04
 Reference value :  2.68755e-04
 Reference value :  2.68756e-04
 Reference value :  2.68757e-04
 Reference value :  2.68758e-04
 Reference value :  2.68759e-04
 Reference value :  2.68761e-04
 Reference value :  2.68763e-04
 Reference value :  2.68766e-04
 Reference value :  2.68770e-04
 Reference value :  2.68779e-04
 Reference value :  2.68796e-04
 Reference value :  2.68824e-04
 Reference value :  2.68871e-04
 Reference value :  2.68928e-04
 Reference value :  2.68998e-04
 Reference value :  2.69000e-04
 Reference value :  2.69000e-04
 Reference value :  2.69000e-04
 Reference value :  2.69000e-04
 Reference value :  2.69000e-04
 Reference value :  2.69000e-04
 Reference value :  2.69000e-04
 Reference value :  2.69000e-04
 Reference value :  2.69000e-04
 Reference value :  2.69000e-04
 Reference value :  2.69000e-04
 Reference value :  2.69001e-04
 Reference value :  2.69001e-04
 Reference value :  2.69001e-04
 Reference value :  2.69002e-04
 Reference value :  2.69003e-04
 Reference value :  2.69003e-04
 Reference value :  2.69004e-04
 Reference value :  2.69005e-04
 Reference value :  2.69005e-04
 Reference value :  2.69006e-04
 Reference value :  2.69008e-04
 Reference value :  2.69009e-04
 Reference value :  2.69010e-04
 Reference value :  2.69011e-04
 Reference value :  2.69013e-04
 Reference value :  2.69014e-04
 Reference value :  2.69016e-04
 Reference value :  2.69018e-04
 Reference value :  2.69019e-04
 Reference value :  2.69023e-04
 Reference value :  2.69027e-04
 Reference value :  2.69036e-04
 Reference value :  2.69053e-04
 Reference value :  2.69084e-04
 Reference value :  2.69145e-04
 Reference value :  2.69250e-04
 Reference value :  2.69250e-04
 Reference value :  2.69250e-04
 Reference value :  2.69250e-04
 Reference value :  2.69250e-04
 Reference value :  2.69250e-04
 Reference value :  2.69250e-04
 Reference value :  2.69250e-04
 Reference value :  2.69250e-04
 Reference value :  2.69250e-04
 Reference value :  2.69250e-04
 Reference value :  2.69250e-04
 Reference value :  2.69250e-04
 Reference value :  2.69251e-04
 Reference value :  2.69251e-04
 Reference value :  2.69251e-04
 Reference value :  2.69252e-04
 Reference value :  2.69253e-04
 Reference value :  2.69253e-04
 Reference value :  2.69254e-04
 Reference value :  2.69255e-04
 Reference value :  2.69256e-04
 Reference value :  2.69257e-04
 Reference value :  2.69258e-04
 Reference value :  2.69259e-04
 Reference value :  2.69260e-04
 Reference value :  2.69261e-04
 Reference value :  2.69263e-04
 Reference value :  2.69264e-04
 Reference value :  2.69267e-04
 Reference value :  2.69270e-04
 Reference value :  2.69275e-04
 Reference value :  2.69284e-04
 Reference value :  2.69301e-04
 Reference value :  2.69333e-04
 Reference value :  2.69399e-04
 Reference value :  2.69500e-04
 Reference value :  2.69500e-04
 Reference value :  2.69500e-04
 Reference value :  2.69500e-04
 Reference value :  2.69500e-04
 Reference value :  2.69500e-04
 Reference value :  2.69500e-04
 Reference value :  2.69500e-04
 Reference value :  2.69500e-04
 Reference value :  2.69500e-04
 Reference value :  2.69500e-04
 Reference value :  2.69501e-04
 Reference value :  2.69501e-04
 Reference value :  2.69501e-04
 Reference value :  2.69502e-04
 Reference value :  2.69503e-04
 Reference value :  2.69503e-04
 Reference value :  2.69504e-04
 Reference value :  2.69505e-04
 Reference value :  2.69505e-04
 Reference value :  2.69506e-04
 Reference value :  2.69507e-04
 Reference value :  2.69508e-04
 Reference value :  2.69509e-04
 Reference value :  2.69510e-04
 Reference value :  2.69511e-04
 Reference value :  2.69512e-04
 Reference value :  2.69514e-04
 Reference value :  2.69515e-04
 Reference value :  2.69517e-04
 Reference value :  2.69519e-04
 Reference value :  2.69521e-04
 Reference value :  2.69522e-04
 Reference value :  2.69523e-04
 Reference value :  2.69524e-04
 Reference value :  2.69526e-04
 Reference value :  2.69527e-04
 Reference value :  2.69528e-04
 Reference value :  2.69531e-04
 Reference value :  2.69533e-04
 Reference value :  2.69537e-04
 Reference value :  2.69541e-04
 Reference value :  2.69544e-04
 Reference value :  2.69546e-04
 Reference value :  2.69549e-04
 Reference value :  2.69553e-04
 Reference value :  2.69556e-04
 Reference value :  2.69562e-04
 Reference value :  2.69569e-04
 Reference value :  2.69580e-04
 Reference value :  2.69600e-04
 Reference value :  2.69628e-04
 Reference value :  2.69677e-04
 Reference value :  2.69750e-04
 Reference value :  2.69750e-04
 Reference value :  2.69750e-04
 Reference value :  2.69750e-04
 Reference value :  2.69750e-04
 Reference value :  2.69750e-04
 Reference value :  2.69750e-04
 Reference value :  2.69750e-04
 Reference value :  2.69750e-04
 Reference value :  2.69750e-04
 Reference value :  2.69750e-04
 Reference value :  2.69750e-04
 Reference value :  2.69750e-04
 Reference value :  2.69751e-04
 Reference value :  2.69751e-04
 Reference value :  2.69751e-04
 Reference value :  2.69752e-04
 Reference value :  2.69753e-04
 Reference value :  2.69753e-04
 Reference value :  2.69755e-04
 Reference value :  2.69755e-04
 Reference value :  2.69756e-04
 Reference value :  2.69757e-04
 Reference value :  2.69758e-04
 Reference value :  2.69759e-04
 Reference value :  2.69761e-04
 Reference value :  2.69763e-04
 Reference value :  2.69766e-04
 Reference value :  2.69771e-04
 Reference value :  2.69779e-04
 Reference value :  2.69796e-04
 Reference value :  2.69825e-04
 Reference value :  2.69882e-04
 Reference value :  2.69993e-04
 Reference value :  2.70000e-04
 Reference value :  2.70000e-04
 Reference value :  2.70000e-04
 Reference value :  2.70000e-04
 Reference value :  2.70000e-04
 Reference value :  2.70000e-04
 Reference value :  2.70000e-04
 Reference value :  2.70000e-04
 Reference value :  2.70000e-04
 Reference value :  2.70000e-04
 Reference value :  2.70000e-04
 Reference value :  2.70001e-04
 Reference value :  2.70001e-04
 Reference value :  2.70001e-04
 Reference value :  2.70002e-04
 Reference value :  2.70003e-04
 Reference value :  2.70003e-04
 Reference value :  2.70004e-04
 Reference value :  2.70005e-04
 Reference value :  2.70005e-04
 Reference value :  2.70006e-04
 Reference value :  2.70008e-04
 Reference value :  2.70009e-04
 Reference value :  2.70010e-04
 Reference value :  2.70011e-04
 Reference value :  2.70013e-04
 Reference value :  2.70014e-04
 Reference value :  2.70016e-04
 Reference value :  2.70017e-04
 Reference value :  2.70019e-04
 Reference value :  2.70023e-04
 Reference value :  2.70028e-04
 Reference value :  2.70037e-04
 Reference value :  2.70055e-04
 Reference value :  2.70090e-04
 Reference value :  2.70158e-04
 Reference value :  2.70250e-04
 Reference value :  2.70250e-04
 Reference value :  2.70250e-04
 Reference value :  2.70250e-04
 Reference value :  2.70250e-04
 Reference value :  2.70250e-04
 Reference value :  2.70250e-04
 Reference value :  2.70250e-04
 Reference value :  2.70250e-04
 Reference value :  2.70250e-04
 Reference value :  2.70250e-04
 Reference value :  2.70250e-04
 Reference value :  2.70250e-04
 Reference value :  2.70251e-04
 Reference value :  2.70251e-04
 Reference value :  2.70251e-04
 Reference value :  2.70252e-04
 Reference value :  2.70253e-04
 Reference value :  2.70253e-04
 Reference value :  2.70254e-04
 Reference value :  2.70255e-04
 Reference value :  2.70256e-04
 Reference value :  2.70257e-04
 Reference value :  2.70258e-04
 Reference value :  2.70259e-04
 Reference value :  2.70260e-04
 Reference value :  2.70262e-04
 Reference value :  2.70264e-04
 Reference value :  2.70268e-04
 Reference value :  2.70273e-04
 Reference value :  2.70283e-04
 Reference value :  2.70303e-04
 Reference value :  2.70341e-04
 Reference value :  2.70417e-04
 Reference value :  2.70500e-04
 Reference value :  2.70500e-04
 Reference value :  2.70500e-04
 Reference value :  2.70500e-04
 Reference value :  2.70500e-04
 Reference value :  2.70500e-04
 Reference value :  2.70500e-04
 Reference value :  2.70500e-04
 Reference value :  2.70500e-04
 Reference value :  2.70500e-04
 Reference value :  2.70500e-04
 Reference value :  2.70501e-04
 Reference value :  2.70501e-04
 Reference value :  2.70501e-04
 Reference value :  2.70502e-04
 Reference value :  2.70503e-04
 Reference value :  2.70503e-04
 Reference value :  2.70504e-04
 Reference value :  2.70505e-04
 Reference value :  2.70505e-04
 Reference value :  2.70506e-04
 Reference value :  2.70507e-04
 Reference value :  2.70508e-04
 Reference value :  2.70509e-04
 Reference value :  2.70510e-04
 Reference value :  2.70511e-04
 Reference value :  2.70513e-04
 Reference value :  2.70515e-04
 Reference value :  2.70518e-04
 Reference value :  2.70520e-04
 Reference value :  2.70522e-04
 Reference value :  2.70524e-04
 Reference value :  2.70526e-04
 Reference value :  2.70527e-04
 Reference value :  2.70529e-04
 Reference value :  2.70532e-04
 Reference value :  2.70534e-04
 Reference value :  2.70538e-04
 Reference value :  2.70543e-04
 Reference value :  2.70552e-04
 Reference value :  2.70564e-04
 Reference value :  2.70581e-04
 Reference value :  2.70601e-04
 Reference value :  2.70625e-04
 Reference value :  2.70651e-04
 Reference value :  2.70668e-04
 Reference value :  2.70685e-04
 Reference value :  2.70711e-04
 Reference value :  2.70743e-04
 Reference value :  2.70750e-04
 Reference value :  2.70750e-04
 Reference value :  2.70750e-04
 Reference value :  2.70750e-04
 Reference value :  2.70750e-04
 Reference value :  2.70750e-04
 Reference value :  2.70750e-04
 Reference value :  2.70750e-04
 Reference value :  2.70750e-04
 Reference value :  2.70750e-04
 Reference value :  2.70750e-04
 Reference value :  2.70750e-04
 Reference value :  2.70750e-04
 Reference value :  2.70751e-04
 Reference value :  2.70751e-04
 Reference value :  2.70751e-04
 Reference value :  2.70752e-04
 Reference value :  2.70753e-04
 Reference value :  2.70753e-04
 Reference value :  2.70755e-04
 Reference value :  2.70755e-04
 Reference value :  2.70756e-04
 Reference value :  2.70757e-04
 Reference value :  2.70758e-04
 Reference value :  2.70759e-04
 Reference value :  2.70761e-04
 Reference value :  2.70763e-04
 Reference value :  2.70767e-04
 Reference value :  2.70771e-04
 Reference value :  2.70779e-04
 Reference value :  2.70796e-04
 Reference value :  2.70824e-04
 Reference value :  2.70860e-04
 Reference value :  2.70923e-04
 Reference value :  2.71000e-04
 Reference value :  2.71000e-04
 Reference value :  2.71000e-04
 Reference value :  2.71000e-04
 Reference value :  2.71000e-04
 Reference value :  2.71000e-04
 Reference value :  2.71000e-04
 Reference value :  2.71000e-04
 Reference value :  2.71000e-04
 Reference value :  2.71000e-04
 Reference value :  2.71000e-04
 Reference value :  2.71001e-04
 Reference value :  2.71001e-04
 Reference value :  2.71001e-04
 Reference value :  2.71002e-04
 Reference value :  2.71002e-04
 Reference value :  2.71003e-04
 Reference value :  2.71004e-04
 Reference value :  2.71005e-04
 Reference value :  2.71005e-04
 Reference value :  2.71006e-04
 Reference value :  2.71008e-04
 Reference value :  2.71009e-04
 Reference value :  2.71010e-04
 Reference value :  2.71012e-04
 Reference value :  2.71013e-04
 Reference value :  2.71014e-04
 Reference value :  2.71016e-04
 Reference value :  2.71018e-04
 Reference value :  2.71019e-04
 Reference value :  2.71023e-04
 Reference value :  2.71028e-04
 Reference value :  2.71038e-04
 Reference value :  2.71057e-04
 Reference value :  2.71094e-04
 Reference value :  2.71168e-04
 Reference value :  2.71250e-04
 Reference value :  2.71250e-04
 Reference value :  2.71250e-04
 Reference value :  2.71250e-04
 Reference value :  2.71250e-04
 Reference value :  2.71250e-04
 Reference value :  2.71250e-04
 Reference value :  2.71250e-04
 Reference value :  2.71250e-04
 Reference value :  2.71250e-04
 Reference value :  2.71250e-04
 Reference value :  2.71250e-04
 Reference value :  2.71250e-04
 Reference value :  2.71251e-04
 Reference value :  2.71251e-04
 Reference value :  2.71251e-04
 Reference value :  2.71252e-04
 Reference value :  2.71253e-04
 Reference value :  2.71253e-04
 Reference value :  2.71254e-04
 Reference value :  2.71255e-04
 Reference value :  2.71256e-04
 Reference value :  2.71257e-04
 Reference value :  2.71258e-04
 Reference value :  2.71259e-04
 Reference value :  2.71260e-04
 Reference value :  2.71261e-04
 Reference value :  2.71263e-04
 Reference value :  2.71264e-04
 Reference value :  2.71267e-04
 Reference value :  2.71270e-04
 Reference value :  2.71275e-04
 Reference value :  2.71284e-04
 Reference value :  2.71300e-04
 Reference value :  2.71331e-04
 Reference value :  2.71393e-04
 Reference value :  2.71500e-04
 Reference value :  2.71500e-04
 Reference value :  2.71500e-04
 Reference value :  2.71500e-04
 Reference value :  2.71500e-04
 Reference value :  2.71500e-04
 Reference value :  2.71500e-04
 Reference value :  2.71500e-04
 Reference value :  2.71500e-04
 Reference value :  2.71500e-04
 Reference value :  2.71500e-04
 Reference value :  2.71501e-04
 Reference value :  2.71501e-04
 Reference value :  2.71501e-04
 Reference value :  2.71502e-04
 Reference value :  2.71503e-04
 Reference value :  2.71503e-04
 Reference value :  2.71504e-04
 Reference value :  2.71505e-04
 Reference value :  2.71505e-04
 Reference value :  2.71506e-04
 Reference value :  2.71507e-04
 Reference value :  2.71508e-04
 Reference value :  2.71509e-04
 Reference value :  2.71510e-04
 Reference value :  2.71511e-04
 Reference value :  2.71513e-04
 Reference value :  2.71515e-04
 Reference value :  2.71516e-04
 Reference value :  2.71518e-04
 Reference value :  2.71520e-04
 Reference value :  2.71521e-04
 Reference value :  2.71523e-04
 Reference value :  2.71526e-04
 Reference value :  2.71529e-04
 Reference value :  2.71533e-04
 Reference value :  2.71538e-04
 Reference value :  2.71545e-04
 Reference value :  2.71553e-04
 Reference value :  2.71558e-04
 Reference value :  2.71563e-04
 Reference value :  2.71570e-04
 Reference value :  2.71577e-04
 Reference value :  2.71585e-04
 Reference value :  2.71595e-04
 Reference value :  2.71610e-04
 Reference value :  2.71639e-04
 Reference value :  2.71675e-04
 Reference value :  2.71746e-04
 Reference value :  2.71750e-04
 Reference value :  2.71750e-04
 Reference value :  2.71750e-04
 Reference value :  2.71750e-04
 Reference value :  2.71750e-04
 Reference value :  2.71750e-04
 Reference value :  2.71750e-04
 Reference value :  2.71750e-04
 Reference value :  2.71750e-04
 Reference value :  2.71750e-04
 Reference value :  2.71750e-04
 Reference value :  2.71750e-04
 Reference value :  2.71750e-04
 Reference value :  2.71751e-04
 Reference value :  2.71751e-04
 Reference value :  2.71751e-04
 Reference value :  2.71752e-04
 Reference value :  2.71753e-04
 Reference value :  2.71754e-04
 Reference value :  2.71755e-04
 Reference value :  2.71756e-04
 Reference value :  2.71757e-04
 Reference value :  2.71759e-04
 Reference value :  2.71760e-04
 Reference value :  2.71763e-04
 Reference value :  2.71765e-04
 Reference value :  2.71770e-04
 Reference value :  2.71776e-04
 Reference value :  2.71790e-04
 Reference value :  2.71817e-04
 Reference value :  2.71869e-04
 Reference value :  2.71974e-04
 Reference value :  2.72000e-04
No. of Data Rows : 42368
ngspice-44 done
