
Note: Compatibility modes selected: hs a


Circuit: ** sch_path: /home/ece/cace/sar-adc-using-sky130-pdk/runs/run_2025-09-13_03-04-32/parameters/sndr/run_0/sndr_enob_fom.sch

option SCALE: Scale is set to 1e-06 for instance and model parameters
option SCALE: Scale is set to 1e-06 for instance and model parameters
option SCALE: Scale is set to 1e-06 for instance and model parameters
option SCALE: Scale is set to 1e-06 for instance and model parameters
Doing analysis at TEMP = 27.000000 and TNOM = 27.000000

Using KLU as Direct Linear Solver
Operating point simulation skipped by 'uic',
  now using transient initial conditions.
 Reference value :  1.00000e-12
 Reference value :  1.08400e-12
 Reference value :  1.72140e-12
 Reference value :  3.19967e-12
 Reference value :  6.32464e-12
 Reference value :  1.35498e-11
 Reference value :  3.27390e-11
 Reference value :  1.00000e-10
 Reference value :  1.15351e-10
 Reference value :  1.76757e-10
 Reference value :  4.22379e-10
 Reference value :  9.78359e-10
 Reference value :  1.92537e-09
 Reference value :  3.29584e-09
 Reference value :  5.16320e-09
 Reference value :  7.01059e-09
 Reference value :  8.47390e-09
 Reference value :  1.16671e-08
 Reference value :  1.31264e-08
 Reference value :  1.42568e-08
 Reference value :  1.63115e-08
 Reference value :  3.47460e-08
 Reference value :  9.56397e-08
 Reference value :  1.16820e-07
 Reference value :  1.26579e-07
 Reference value :  1.49287e-07
 Reference value :  1.95043e-07
 Reference value :  2.50110e-07
 Reference value :  2.50200e-07
 Reference value :  2.50254e-07
 Reference value :  2.50570e-07
 Reference value :  2.51400e-07
 Reference value :  2.53034e-07
 Reference value :  2.53606e-07
 Reference value :  2.54768e-07
 Reference value :  2.56977e-07
 Reference value :  2.62370e-07
 Reference value :  3.01317e-07
 Reference value :  5.00000e-07
 Reference value :  5.00070e-07
 Reference value :  5.00124e-07
 Reference value :  5.00345e-07
 Reference value :  5.00864e-07
 Reference value :  5.01746e-07
 Reference value :  5.03217e-07
 Reference value :  5.04428e-07
 Reference value :  5.07297e-07
 Reference value :  5.09877e-07
 Reference value :  5.12563e-07
 Reference value :  5.14005e-07
 Reference value :  5.17409e-07
 Reference value :  5.36554e-07
 Reference value :  7.50110e-07
 Reference value :  7.50208e-07
 Reference value :  7.50448e-07
 Reference value :  7.51567e-07
 Reference value :  7.53359e-07
 Reference value :  7.54453e-07
 Reference value :  7.55631e-07
 Reference value :  7.57326e-07
 Reference value :  7.59225e-07
 Reference value :  7.62096e-07
 Reference value :  7.75950e-07
 Reference value :  8.20269e-07
 Reference value :  9.97544e-07
 Reference value :  1.00001e-06
 Reference value :  1.00007e-06
 Reference value :  1.00012e-06
 Reference value :  1.00034e-06
 Reference value :  1.00131e-06
 Reference value :  1.00231e-06
 Reference value :  1.00334e-06
 Reference value :  1.00457e-06
 Reference value :  1.00576e-06
 Reference value :  1.00726e-06
 Reference value :  1.00935e-06
 Reference value :  1.01043e-06
 Reference value :  1.01263e-06
 Reference value :  1.01438e-06
 Reference value :  1.01637e-06
 Reference value :  1.01980e-06
 Reference value :  1.03636e-06
 Reference value :  1.25010e-06
 Reference value :  1.25020e-06
 Reference value :  1.25032e-06
 Reference value :  1.25156e-06
 Reference value :  1.25335e-06
 Reference value :  1.25444e-06
 Reference value :  1.25832e-06
 Reference value :  1.29294e-06
 Reference value :  1.50000e-06
 Reference value :  1.50011e-06
 Reference value :  1.50052e-06
 Reference value :  1.50175e-06
 Reference value :  1.50322e-06
 Reference value :  1.50442e-06
 Reference value :  1.50604e-06
 Reference value :  1.50746e-06
 Reference value :  1.51032e-06
 Reference value :  1.52522e-06
 Reference value :  1.75011e-06
 Reference value :  1.75022e-06
 Reference value :  1.75101e-06
 Reference value :  1.75335e-06
 Reference value :  1.75444e-06
 Reference value :  1.75646e-06
 Reference value :  1.76065e-06
 Reference value :  1.82074e-06
 Reference value :  2.00007e-06
 Reference value :  2.00022e-06
 Reference value :  2.00182e-06
 Reference value :  2.00334e-06
 Reference value :  2.00518e-06
 Reference value :  2.00641e-06
 Reference value :  2.00935e-06
 Reference value :  2.01147e-06
 Reference value :  2.01351e-06
 Reference value :  2.01536e-06
 Reference value :  2.01856e-06
 Reference value :  2.02802e-06
 Reference value :  2.09820e-06
 Reference value :  2.11960e-06
 Reference value :  2.13740e-06
 Reference value :  2.14501e-06
 Reference value :  2.17162e-06
 Reference value :  2.24422e-06
 Reference value :  2.25020e-06
 Reference value :  2.25045e-06
 Reference value :  2.25151e-06
 Reference value :  2.25326e-06
 Reference value :  2.25498e-06
 Reference value :  2.25929e-06
 Reference value :  2.31439e-06
 Reference value :  2.50003e-06
 Reference value :  2.50016e-06
 Reference value :  2.50086e-06
 Reference value :  2.50278e-06
 Reference value :  2.50455e-06
 Reference value :  2.50718e-06
 Reference value :  2.50982e-06
 Reference value :  2.51876e-06
 Reference value :  2.75011e-06
 Reference value :  2.75022e-06
 Reference value :  2.75101e-06
 Reference value :  2.75252e-06
 Reference value :  2.75437e-06
 Reference value :  2.75627e-06
 Reference value :  2.78157e-06
 Reference value :  3.00001e-06
 Reference value :  3.00012e-06
 Reference value :  3.00052e-06
 Reference value :  3.00231e-06
 Reference value :  3.00332e-06
 Reference value :  3.00521e-06
 Reference value :  3.00650e-06
 Reference value :  3.00976e-06
 Reference value :  3.01278e-06
 Reference value :  3.01611e-06
 Reference value :  3.02137e-06
 Reference value :  3.04948e-06
 Reference value :  3.06567e-06
 Reference value :  3.08215e-06
 Reference value :  3.12410e-06
 Reference value :  3.25011e-06
 Reference value :  3.25022e-06
 Reference value :  3.25070e-06
 Reference value :  3.25202e-06
 Reference value :  3.25376e-06
 Reference value :  3.25558e-06
 Reference value :  3.26532e-06
 Reference value :  3.46768e-06
 Reference value :  3.50007e-06
 Reference value :  3.50022e-06
 Reference value :  3.50131e-06
 Reference value :  3.50268e-06
 Reference value :  3.50442e-06
 Reference value :  3.50673e-06
 Reference value :  3.51032e-06
 Reference value :  3.52496e-06
 Reference value :  3.75011e-06
 Reference value :  3.75022e-06
 Reference value :  3.75101e-06
 Reference value :  3.75326e-06
 Reference value :  3.75490e-06
 Reference value :  3.75712e-06
 Reference value :  3.76409e-06
 Reference value :  3.86893e-06
 Reference value :  4.00010e-06
 Reference value :  4.00034e-06
 Reference value :  4.00131e-06
 Reference value :  4.00278e-06
 Reference value :  4.00393e-06
 Reference value :  4.00575e-06
 Reference value :  4.00817e-06
 Reference value :  4.01043e-06
 Reference value :  4.01263e-06
 Reference value :  4.01535e-06
 Reference value :  4.01855e-06
 Reference value :  4.03333e-06
 Reference value :  4.05018e-06
 Reference value :  4.06539e-06
 Reference value :  4.09148e-06
 Reference value :  4.19732e-06
 Reference value :  4.25017e-06
 Reference value :  4.25022e-06
 Reference value :  4.25070e-06
 Reference value :  4.25202e-06
 Reference value :  4.25378e-06
 Reference value :  4.25497e-06
 Reference value :  4.25927e-06
 Reference value :  4.28641e-06
 Reference value :  4.50001e-06
 Reference value :  4.50011e-06
 Reference value :  4.50034e-06
 Reference value :  4.50131e-06
 Reference value :  4.50278e-06
 Reference value :  4.50391e-06
 Reference value :  4.50638e-06
 Reference value :  4.50718e-06
 Reference value :  4.50888e-06
 Reference value :  4.51087e-06
 Reference value :  4.52767e-06
 Reference value :  4.75010e-06
 Reference value :  4.75017e-06
 Reference value :  4.75026e-06
 Reference value :  4.75070e-06
 Reference value :  4.75150e-06
 Reference value :  4.75325e-06
 Reference value :  4.75437e-06
 Reference value :  4.75548e-06
 Reference value :  4.75878e-06
 Reference value :  4.78139e-06
 Reference value :  5.00000e-06
 Reference value :  5.00007e-06
 Reference value :  5.00012e-06
 Reference value :  5.00034e-06
 Reference value :  5.00131e-06
 Reference value :  5.00278e-06
 Reference value :  5.00390e-06
 Reference value :  5.00584e-06
 Reference value :  5.00747e-06
 Reference value :  5.00976e-06
 Reference value :  5.01278e-06
 Reference value :  5.01389e-06
 Reference value :  5.01611e-06
 Reference value :  5.01825e-06
 Reference value :  5.02311e-06
 Reference value :  5.04012e-06
 Reference value :  5.05548e-06
 Reference value :  5.07163e-06
 Reference value :  5.07851e-06
 Reference value :  5.09892e-06
 Reference value :  5.17706e-06
 Reference value :  5.25011e-06
 Reference value :  5.25017e-06
 Reference value :  5.25022e-06
 Reference value :  5.25045e-06
 Reference value :  5.25101e-06
 Reference value :  5.25150e-06
 Reference value :  5.25251e-06
 Reference value :  5.25375e-06
 Reference value :  5.25493e-06
 Reference value :  5.25638e-06
 Reference value :  5.26197e-06
 Reference value :  5.28468e-06
 Reference value :  5.46634e-06
 Reference value :  5.50003e-06
 Reference value :  5.50011e-06
 Reference value :  5.50022e-06
 Reference value :  5.50086e-06
 Reference value :  5.50175e-06
 Reference value :  5.50322e-06
 Reference value :  5.50442e-06
 Reference value :  5.50604e-06
 Reference value :  5.50673e-06
 Reference value :  5.50840e-06
 Reference value :  5.51145e-06
 Reference value :  5.52484e-06
 Reference value :  5.66568e-06
 Reference value :  5.75013e-06
 Reference value :  5.75020e-06
 Reference value :  5.75026e-06
 Reference value :  5.75070e-06
 Reference value :  5.75150e-06
 Reference value :  5.75325e-06
 Reference value :  5.75377e-06
 Reference value :  5.75490e-06
 Reference value :  5.75627e-06
 Reference value :  5.76017e-06
 Reference value :  5.77307e-06
 Reference value :  5.86720e-06
 Reference value :  6.00003e-06
 Reference value :  6.00012e-06
 Reference value :  6.00052e-06
 Reference value :  6.00182e-06
 Reference value :  6.00334e-06
 Reference value :  6.00457e-06
 Reference value :  6.00575e-06
 Reference value :  6.00817e-06
 Reference value :  6.01043e-06
 Reference value :  6.01263e-06
 Reference value :  6.01434e-06
 Reference value :  6.01644e-06
 Reference value :  6.01872e-06
 Reference value :  6.02438e-06
 Reference value :  6.03170e-06
 Reference value :  6.03759e-06
 Reference value :  6.05927e-06
 Reference value :  6.19343e-06
 Reference value :  6.25017e-06
 Reference value :  6.25026e-06
 Reference value :  6.25101e-06
 Reference value :  6.25202e-06
 Reference value :  6.25325e-06
 Reference value :  6.25438e-06
 Reference value :  6.25559e-06
 Reference value :  6.26182e-06
 Reference value :  6.37075e-06
 Reference value :  6.50007e-06
 Reference value :  6.50016e-06
 Reference value :  6.50052e-06
 Reference value :  6.50182e-06
 Reference value :  6.50333e-06
 Reference value :  6.50549e-06
 Reference value :  6.50718e-06
 Reference value :  6.50889e-06
 Reference value :  6.51200e-06
 Reference value :  6.58112e-06
 Reference value :  6.75013e-06
 Reference value :  6.75021e-06
 Reference value :  6.75032e-06
 Reference value :  6.75101e-06
 Reference value :  6.75202e-06
 Reference value :  6.75325e-06
 Reference value :  6.75377e-06
 Reference value :  6.75490e-06
 Reference value :  6.75626e-06
 Reference value :  6.76087e-06
 Reference value :  6.78131e-06
 Reference value :  7.00000e-06
 Reference value :  7.00007e-06
 Reference value :  7.00012e-06
 Reference value :  7.00034e-06
 Reference value :  7.00086e-06
 Reference value :  7.00182e-06
 Reference value :  7.00278e-06
 Reference value :  7.00332e-06
 Reference value :  7.00449e-06
 Reference value :  7.00584e-06
 Reference value :  7.00836e-06
 Reference value :  7.00976e-06
 Reference value :  7.01278e-06
 Reference value :  7.01389e-06
 Reference value :  7.01611e-06
 Reference value :  7.01716e-06
 Reference value :  7.01946e-06
 Reference value :  7.02663e-06
 Reference value :  7.08292e-06
 Reference value :  7.25011e-06
 Reference value :  7.25020e-06
 Reference value :  7.25032e-06
 Reference value :  7.25101e-06
 Reference value :  7.25202e-06
 Reference value :  7.25325e-06
 Reference value :  7.25438e-06
 Reference value :  7.25559e-06
 Reference value :  7.25926e-06
 Reference value :  7.28641e-06
 Reference value :  7.50000e-06
 Reference value :  7.50007e-06
 Reference value :  7.50012e-06
 Reference value :  7.50052e-06
 Reference value :  7.50182e-06
 Reference value :  7.50333e-06
 Reference value :  7.50455e-06
 Reference value :  7.50719e-06
 Reference value :  7.50889e-06
 Reference value :  7.51200e-06
 Reference value :  7.52766e-06
 Reference value :  7.75010e-06
 Reference value :  7.75020e-06
 Reference value :  7.75032e-06
 Reference value :  7.75101e-06
 Reference value :  7.75202e-06
 Reference value :  7.75325e-06
 Reference value :  7.75436e-06
 Reference value :  7.75548e-06
 Reference value :  7.75710e-06
 Reference value :  7.76409e-06
 Reference value :  7.80424e-06
 Reference value :  8.00001e-06
 Reference value :  8.00007e-06
 Reference value :  8.00012e-06
 Reference value :  8.00022e-06
 Reference value :  8.00052e-06
 Reference value :  8.00131e-06
 Reference value :  8.00231e-06
 Reference value :  8.00332e-06
 Reference value :  8.00449e-06
 Reference value :  8.00584e-06
 Reference value :  8.00747e-06
 Reference value :  8.00925e-06
 Reference value :  8.01141e-06
 Reference value :  8.02554e-06
 Reference value :  8.13218e-06
 Reference value :  8.25013e-06
 Reference value :  8.25021e-06
 Reference value :  8.25032e-06
 Reference value :  8.25070e-06
 Reference value :  8.25150e-06
 Reference value :  8.25251e-06
 Reference value :  8.25324e-06
 Reference value :  8.25501e-06
 Reference value :  8.25697e-06
 Reference value :  8.26021e-06
 Reference value :  8.27749e-06
 Reference value :  8.41108e-06
 Reference value :  8.50003e-06
 Reference value :  8.50011e-06
 Reference value :  8.50016e-06
 Reference value :  8.50060e-06
 Reference value :  8.50143e-06
 Reference value :  8.50244e-06
 Reference value :  8.50357e-06
 Reference value :  8.50489e-06
 Reference value :  8.50714e-06
 Reference value :  8.51378e-06
 Reference value :  8.52616e-06
 Reference value :  8.53052e-06
 Reference value :  8.53326e-06
 Reference value :  8.53738e-06
 Reference value :  8.53995e-06
 Reference value :  8.54714e-06
 Reference value :  8.55407e-06
 Reference value :  8.56218e-06
 Reference value :  8.58603e-06
 Reference value :  8.64003e-06
 Reference value :  8.68994e-06
 Reference value :  8.71368e-06
 Reference value :  8.72685e-06
 Reference value :  8.73399e-06
 Reference value :  8.75010e-06
 Reference value :  8.75013e-06
 Reference value :  8.75020e-06
 Reference value :  8.75021e-06
 Reference value :  8.75032e-06
 Reference value :  8.75070e-06
 Reference value :  8.75150e-06
 Reference value :  8.75251e-06
 Reference value :  8.75373e-06
 Reference value :  8.75490e-06
 Reference value :  8.75632e-06
 Reference value :  8.75916e-06
 Reference value :  8.77125e-06
 Reference value :  8.85838e-06
 Reference value :  9.00001e-06
 Reference value :  9.00010e-06
 Reference value :  9.00016e-06
 Reference value :  9.00052e-06
 Reference value :  9.00131e-06
 Reference value :  9.00223e-06
 Reference value :  9.00321e-06
 Reference value :  9.00441e-06
 Reference value :  9.00603e-06
 Reference value :  9.00869e-06
 Reference value :  9.01108e-06
 Reference value :  9.01386e-06
 Reference value :  9.01899e-06
 Reference value :  9.05015e-06
 Reference value :  9.25011e-06
 Reference value :  9.25021e-06
 Reference value :  9.25032e-06
 Reference value :  9.25101e-06
 Reference value :  9.25202e-06
 Reference value :  9.25325e-06
 Reference value :  9.25377e-06
 Reference value :  9.25490e-06
 Reference value :  9.25630e-06
 Reference value :  9.25772e-06
 Reference value :  9.25955e-06
 Reference value :  9.26561e-06
 Reference value :  9.29410e-06
 Reference value :  9.37188e-06
 Reference value :  9.50001e-06
 Reference value :  9.50010e-06
 Reference value :  9.50016e-06
 Reference value :  9.50052e-06
 Reference value :  9.50131e-06
 Reference value :  9.50231e-06
 Reference value :  9.50334e-06
 Reference value :  9.50457e-06
 Reference value :  9.50575e-06
 Reference value :  9.50725e-06
 Reference value :  9.50934e-06
 Reference value :  9.51147e-06
 Reference value :  9.51351e-06
 Reference value :  9.51536e-06
 Reference value :  9.51857e-06
 Reference value :  9.52383e-06
 Reference value :  9.55141e-06
 Reference value :  9.69962e-06
 Reference value :  9.75013e-06
 Reference value :  9.75022e-06
 Reference value :  9.75045e-06
 Reference value :  9.75101e-06
 Reference value :  9.75150e-06
 Reference value :  9.75251e-06
 Reference value :  9.75377e-06
 Reference value :  9.75494e-06
 Reference value :  9.75768e-06
 Reference value :  9.76514e-06
 Reference value :  9.81192e-06
 Reference value :  1.00000e-05
 Reference value :  1.00001e-05
 Reference value :  1.00001e-05
 Reference value :  1.00003e-05
 Reference value :  1.00009e-05
 Reference value :  1.00017e-05
 Reference value :  1.00027e-05
 Reference value :  1.00032e-05
 Reference value :  1.00044e-05
 Reference value :  1.00052e-05
 Reference value :  1.00067e-05
 Reference value :  1.00084e-05
 Reference value :  1.00103e-05
 Reference value :  1.00115e-05
 Reference value :  1.00185e-05
 Reference value :  1.00540e-05
 Reference value :  1.02501e-05
 Reference value :  1.02501e-05
 Reference value :  1.02502e-05
 Reference value :  1.02503e-05
 Reference value :  1.02507e-05
 Reference value :  1.02515e-05
 Reference value :  1.02525e-05
 Reference value :  1.02538e-05
 Reference value :  1.02549e-05
 Reference value :  1.02563e-05
 Reference value :  1.02579e-05
 Reference value :  1.02616e-05
 Reference value :  1.03195e-05
 Reference value :  1.05000e-05
 Reference value :  1.05001e-05
 Reference value :  1.05002e-05
 Reference value :  1.05013e-05
 Reference value :  1.05028e-05
 Reference value :  1.05033e-05
 Reference value :  1.05046e-05
 Reference value :  1.05058e-05
 Reference value :  1.05093e-05
 Reference value :  1.05126e-05
 Reference value :  1.05144e-05
 Reference value :  1.05174e-05
 Reference value :  1.05214e-05
 Reference value :  1.05559e-05
 Reference value :  1.05960e-05
 Reference value :  1.06141e-05
 Reference value :  1.06290e-05
 Reference value :  1.06424e-05
 Reference value :  1.06726e-05
 Reference value :  1.07501e-05
 Reference value :  1.07502e-05
 Reference value :  1.07503e-05
 Reference value :  1.07507e-05
 Reference value :  1.07515e-05
 Reference value :  1.07525e-05
 Reference value :  1.07538e-05
 Reference value :  1.07550e-05
 Reference value :  1.07577e-05
 Reference value :  1.07724e-05
 Reference value :  1.10000e-05
 Reference value :  1.10001e-05
 Reference value :  1.10003e-05
 Reference value :  1.10013e-05
 Reference value :  1.10028e-05
 Reference value :  1.10039e-05
 Reference value :  1.10064e-05
 Reference value :  1.10080e-05
 Reference value :  1.10109e-05
 Reference value :  1.10454e-05
 Reference value :  1.12501e-05
 Reference value :  1.12502e-05
 Reference value :  1.12507e-05
 Reference value :  1.12515e-05
 Reference value :  1.12533e-05
 Reference value :  1.12538e-05
 Reference value :  1.12549e-05
 Reference value :  1.12563e-05
 Reference value :  1.12641e-05
 Reference value :  1.13502e-05
 Reference value :  1.15000e-05
 Reference value :  1.15001e-05
 Reference value :  1.15002e-05
 Reference value :  1.15013e-05
 Reference value :  1.15028e-05
 Reference value :  1.15039e-05
 Reference value :  1.15058e-05
 Reference value :  1.15084e-05
 Reference value :  1.15098e-05
 Reference value :  1.15128e-05
 Reference value :  1.15139e-05
 Reference value :  1.15161e-05
 Reference value :  1.15182e-05
 Reference value :  1.15231e-05
 Reference value :  1.15402e-05
 Reference value :  1.15488e-05
 Reference value :  1.15654e-05
 Reference value :  1.15773e-05
 Reference value :  1.15891e-05
 Reference value :  1.16110e-05
 Reference value :  1.16732e-05
 Reference value :  1.17501e-05
 Reference value :  1.17502e-05
 Reference value :  1.17503e-05
 Reference value :  1.17507e-05
 Reference value :  1.17515e-05
 Reference value :  1.17533e-05
 Reference value :  1.17538e-05
 Reference value :  1.17549e-05
 Reference value :  1.17578e-05
 Reference value :  1.17717e-05
 Reference value :  1.18625e-05
 Reference value :  1.20000e-05
 Reference value :  1.20001e-05
 Reference value :  1.20002e-05
 Reference value :  1.20005e-05
 Reference value :  1.20013e-05
 Reference value :  1.20022e-05
 Reference value :  1.20032e-05
 Reference value :  1.20052e-05
 Reference value :  1.20067e-05
 Reference value :  1.20084e-05
 Reference value :  1.20103e-05
 Reference value :  1.20115e-05
 Reference value :  1.20185e-05
 Reference value :  1.20539e-05
 Reference value :  1.22501e-05
 Reference value :  1.22502e-05
 Reference value :  1.22502e-05
 Reference value :  1.22504e-05
 Reference value :  1.22515e-05
 Reference value :  1.22533e-05
 Reference value :  1.22538e-05
 Reference value :  1.22549e-05
 Reference value :  1.22563e-05
 Reference value :  1.22589e-05
 Reference value :  1.22641e-05
 Reference value :  1.22815e-05
 Reference value :  1.23674e-05
 Reference value :  1.25000e-05
 Reference value :  1.25001e-05
 Reference value :  1.25002e-05
 Reference value :  1.25005e-05
 Reference value :  1.25013e-05
 Reference value :  1.25023e-05
 Reference value :  1.25033e-05
 Reference value :  1.25046e-05
 Reference value :  1.25058e-05
 Reference value :  1.25073e-05
 Reference value :  1.25104e-05
 Reference value :  1.25126e-05
 Reference value :  1.25143e-05
 Reference value :  1.25164e-05
 Reference value :  1.25186e-05
 Reference value :  1.25214e-05
 Reference value :  1.25306e-05
 Reference value :  1.25398e-05
 Reference value :  1.25433e-05
 Reference value :  1.25487e-05
 Reference value :  1.25682e-05
 Reference value :  1.25856e-05
 Reference value :  1.26253e-05
 Reference value :  1.27501e-05
 Reference value :  1.27502e-05
 Reference value :  1.27503e-05
 Reference value :  1.27510e-05
 Reference value :  1.27525e-05
 Reference value :  1.27538e-05
 Reference value :  1.27556e-05
 Reference value :  1.27654e-05
 Reference value :  1.29840e-05
 Reference value :  1.30001e-05
 Reference value :  1.30003e-05
 Reference value :  1.30018e-05
 Reference value :  1.30033e-05
 Reference value :  1.30055e-05
 Reference value :  1.30072e-05
 Reference value :  1.30089e-05
 Reference value :  1.30109e-05
 Reference value :  1.30276e-05
 Reference value :  1.32501e-05
 Reference value :  1.32502e-05
 Reference value :  1.32504e-05
 Reference value :  1.32515e-05
 Reference value :  1.32533e-05
 Reference value :  1.32538e-05
 Reference value :  1.32549e-05
 Reference value :  1.32563e-05
 Reference value :  1.32609e-05
 Reference value :  1.32698e-05
 Reference value :  1.34421e-05
 Reference value :  1.35001e-05
 Reference value :  1.35002e-05
 Reference value :  1.35005e-05
 Reference value :  1.35013e-05
 Reference value :  1.35028e-05
 Reference value :  1.35045e-05
 Reference value :  1.35065e-05
 Reference value :  1.35098e-05
 Reference value :  1.35139e-05
 Reference value :  1.35172e-05
 Reference value :  1.35266e-05
 Reference value :  1.35493e-05
 Reference value :  1.35675e-05
 Reference value :  1.35854e-05
 Reference value :  1.36208e-05
 Reference value :  1.37501e-05
 Reference value :  1.37502e-05
 Reference value :  1.37507e-05
 Reference value :  1.37525e-05
 Reference value :  1.37538e-05
 Reference value :  1.37564e-05
 Reference value :  1.38045e-05
 Reference value :  1.38785e-05
 Reference value :  1.40000e-05
 Reference value :  1.40001e-05
 Reference value :  1.40009e-05
 Reference value :  1.40028e-05
 Reference value :  1.40039e-05
 Reference value :  1.40064e-05
 Reference value :  1.40089e-05
 Reference value :  1.40187e-05
 Reference value :  1.42501e-05
 Reference value :  1.42502e-05
 Reference value :  1.42510e-05
 Reference value :  1.42520e-05
 Reference value :  1.42533e-05
 Reference value :  1.42544e-05
 Reference value :  1.42563e-05
 Reference value :  1.42641e-05
 Reference value :  1.45000e-05
 Reference value :  1.45001e-05
 Reference value :  1.45009e-05
 Reference value :  1.45028e-05
 Reference value :  1.45045e-05
 Reference value :  1.45065e-05
 Reference value :  1.45098e-05
 Reference value :  1.45128e-05
 Reference value :  1.45150e-05
 Reference value :  1.45171e-05
 Reference value :  1.45225e-05
 Reference value :  1.45346e-05
 Reference value :  1.45440e-05
 Reference value :  1.45539e-05
 Reference value :  1.45659e-05
 Reference value :  1.45951e-05
 Reference value :  1.46870e-05
 Reference value :  1.47501e-05
 Reference value :  1.47502e-05
 Reference value :  1.47503e-05
 Reference value :  1.47507e-05
 Reference value :  1.47515e-05
 Reference value :  1.47533e-05
 Reference value :  1.47538e-05
 Reference value :  1.47549e-05
 Reference value :  1.47592e-05
 Reference value :  1.47848e-05
 Reference value :  1.50000e-05
 Reference value :  1.50001e-05
 Reference value :  1.50001e-05
 Reference value :  1.50003e-05
 Reference value :  1.50013e-05
 Reference value :  1.50022e-05
 Reference value :  1.50032e-05
 Reference value :  1.50044e-05
 Reference value :  1.50060e-05
 Reference value :  1.50075e-05
 Reference value :  1.50094e-05
 Reference value :  1.50114e-05
 Reference value :  1.50248e-05
 Reference value :  1.51647e-05
 Reference value :  1.52501e-05
 Reference value :  1.52502e-05
 Reference value :  1.52507e-05
 Reference value :  1.52515e-05
 Reference value :  1.52533e-05
 Reference value :  1.52538e-05
 Reference value :  1.52549e-05
 Reference value :  1.52563e-05
 Reference value :  1.52589e-05
 Reference value :  1.52640e-05
 Reference value :  1.52814e-05
 Reference value :  1.53660e-05
 Reference value :  1.55007e-05
 Reference value :  1.55029e-05
 Reference value :  1.55043e-05
 Reference value :  1.55049e-05
 Reference value :  1.55061e-05
 Reference value :  1.55086e-05
 Reference value :  1.55107e-05
 Reference value :  1.55118e-05
 Reference value :  1.55137e-05
 Reference value :  1.55164e-05
 Reference value :  1.55194e-05
 Reference value :  1.55255e-05
 Reference value :  1.55674e-05
 Reference value :  1.57501e-05
 Reference value :  1.57502e-05
 Reference value :  1.57503e-05
 Reference value :  1.57507e-05
 Reference value :  1.57515e-05
 Reference value :  1.57532e-05
 Reference value :  1.57538e-05
 Reference value :  1.57549e-05
 Reference value :  1.57576e-05
 Reference value :  1.57717e-05
 Reference value :  1.59716e-05
 Reference value :  1.60001e-05
 Reference value :  1.60001e-05
 Reference value :  1.60003e-05
 Reference value :  1.60013e-05
 Reference value :  1.60022e-05
 Reference value :  1.60032e-05
 Reference value :  1.60044e-05
 Reference value :  1.60060e-05
 Reference value :  1.60075e-05
 Reference value :  1.60094e-05
 Reference value :  1.60114e-05
 Reference value :  1.60248e-05
 Reference value :  1.61649e-05
 Reference value :  1.62501e-05
 Reference value :  1.62502e-05
 Reference value :  1.62504e-05
 Reference value :  1.62515e-05
 Reference value :  1.62533e-05
 Reference value :  1.62544e-05
 Reference value :  1.62555e-05
 Reference value :  1.62571e-05
 Reference value :  1.62602e-05
 Reference value :  1.62730e-05
 Reference value :  1.63653e-05
 Reference value :  1.65000e-05
 Reference value :  1.65001e-05
 Reference value :  1.65003e-05
 Reference value :  1.65009e-05
 Reference value :  1.65018e-05
 Reference value :  1.65028e-05
 Reference value :  1.65039e-05
 Reference value :  1.65052e-05
 Reference value :  1.65058e-05
 Reference value :  1.65073e-05
 Reference value :  1.65081e-05
 Reference value :  1.65096e-05
 Reference value :  1.65115e-05
 Reference value :  1.65163e-05
 Reference value :  1.65235e-05
 Reference value :  1.65478e-05
 Reference value :  1.65597e-05
 Reference value :  1.65855e-05
 Reference value :  1.66608e-05
 Reference value :  1.67502e-05
 Reference value :  1.67503e-05
 Reference value :  1.67515e-05
 Reference value :  1.67532e-05
 Reference value :  1.67560e-05
 Reference value :  1.67602e-05
 Reference value :  1.68346e-05
 Reference value :  1.70015e-05
 Reference value :  1.70045e-05
 Reference value :  1.70060e-05
 Reference value :  1.70134e-05
 Reference value :  1.70256e-05
 Reference value :  1.70291e-05
 Reference value :  1.70318e-05
 Reference value :  1.70365e-05
 Reference value :  1.70413e-05
 Reference value :  1.70458e-05
 Reference value :  1.70579e-05
 Reference value :  1.70831e-05
 Reference value :  1.71262e-05
 Reference value :  1.71855e-05
 Reference value :  1.72181e-05
 Reference value :  1.72280e-05
 Reference value :  1.72485e-05
 Reference value :  1.72501e-05
 Reference value :  1.72502e-05
 Reference value :  1.72503e-05
 Reference value :  1.72510e-05
 Reference value :  1.72520e-05
 Reference value :  1.72532e-05
 Reference value :  1.72543e-05
 Reference value :  1.72555e-05
 Reference value :  1.72590e-05
 Reference value :  1.72835e-05
 Reference value :  1.74587e-05
 Reference value :  1.75000e-05
 Reference value :  1.75001e-05
 Reference value :  1.75009e-05
 Reference value :  1.75027e-05
 Reference value :  1.75044e-05
 Reference value :  1.75072e-05
 Reference value :  1.75111e-05
 Reference value :  1.75139e-05
 Reference value :  1.75226e-05
 Reference value :  1.75811e-05
 Reference value :  1.77502e-05
 Reference value :  1.77503e-05
 Reference value :  1.77515e-05
 Reference value :  1.77533e-05
 Reference value :  1.77549e-05
 Reference value :  1.77562e-05
 Reference value :  1.77588e-05
 Reference value :  1.77707e-05
 Reference value :  1.78223e-05
 Reference value :  1.80016e-05
 Reference value :  1.80066e-05
 Reference value :  1.80095e-05
 Reference value :  1.80129e-05
 Reference value :  1.80157e-05
 Reference value :  1.80189e-05
 Reference value :  1.80297e-05
 Reference value :  1.81672e-05
 Reference value :  1.82501e-05
 Reference value :  1.82502e-05
 Reference value :  1.82502e-05
 Reference value :  1.82504e-05
 Reference value :  1.82515e-05
 Reference value :  1.82525e-05
 Reference value :  1.82537e-05
 Reference value :  1.82548e-05
 Reference value :  1.82573e-05
 Reference value :  1.82644e-05
 Reference value :  1.83072e-05
 Reference value :  1.84461e-05
 Reference value :  1.85000e-05
 Reference value :  1.85001e-05
 Reference value :  1.85002e-05
 Reference value :  1.85009e-05
 Reference value :  1.85017e-05
 Reference value :  1.85032e-05
 Reference value :  1.85052e-05
 Reference value :  1.85067e-05
 Reference value :  1.85094e-05
 Reference value :  1.85127e-05
 Reference value :  1.85355e-05
 Reference value :  1.87501e-05
 Reference value :  1.87502e-05
 Reference value :  1.87502e-05
 Reference value :  1.87504e-05
 Reference value :  1.87515e-05
 Reference value :  1.87533e-05
 Reference value :  1.87544e-05
 Reference value :  1.87555e-05
 Reference value :  1.87579e-05
 Reference value :  1.87671e-05
 Reference value :  1.89606e-05
 Reference value :  1.90001e-05
 Reference value :  1.90003e-05
 Reference value :  1.90018e-05
 Reference value :  1.90033e-05
 Reference value :  1.90058e-05
 Reference value :  1.90093e-05
 Reference value :  1.90126e-05
 Reference value :  1.90144e-05
 Reference value :  1.90164e-05
 Reference value :  1.90186e-05
 Reference value :  1.90238e-05
 Reference value :  1.90695e-05
 Reference value :  1.91075e-05
 Reference value :  1.91315e-05
 Reference value :  1.91472e-05
 Reference value :  1.91763e-05
 Reference value :  1.92501e-05
 Reference value :  1.92502e-05
 Reference value :  1.92503e-05
 Reference value :  1.92510e-05
 Reference value :  1.92520e-05
 Reference value :  1.92532e-05
 Reference value :  1.92544e-05
 Reference value :  1.92550e-05
 Reference value :  1.92577e-05
 Reference value :  1.92654e-05
 Reference value :  1.93145e-05
 Reference value :  1.95005e-05
 Reference value :  1.95022e-05
 Reference value :  1.95033e-05
 Reference value :  1.95045e-05
 Reference value :  1.95061e-05
 Reference value :  1.95068e-05
 Reference value :  1.95085e-05
 Reference value :  1.95104e-05
 Reference value :  1.95129e-05
 Reference value :  1.95185e-05
 Reference value :  1.95771e-05
 Reference value :  1.97501e-05
 Reference value :  1.97501e-05
 Reference value :  1.97502e-05
 Reference value :  1.97503e-05
 Reference value :  1.97510e-05
 Reference value :  1.97520e-05
 Reference value :  1.97533e-05
 Reference value :  1.97538e-05
 Reference value :  1.97549e-05
 Reference value :  1.97563e-05
 Reference value :  1.97609e-05
 Reference value :  1.98044e-05
 Reference value :  2.00000e-05
 Reference value :  2.00001e-05
 Reference value :  2.00002e-05
 Reference value :  2.00005e-05
 Reference value :  2.00018e-05
 Reference value :  2.00033e-05
 Reference value :  2.00045e-05
 Reference value :  2.00058e-05
 Reference value :  2.00075e-05
 Reference value :  2.00098e-05
 Reference value :  2.00128e-05
 Reference value :  2.00139e-05
 Reference value :  2.00161e-05
 Reference value :  2.00182e-05
 Reference value :  2.00231e-05
 Reference value :  2.00402e-05
 Reference value :  2.00485e-05
 Reference value :  2.00751e-05
 Reference value :  2.00926e-05
 Reference value :  2.01079e-05
 Reference value :  2.01264e-05
 Reference value :  2.01989e-05
 Reference value :  2.02501e-05
 Reference value :  2.02502e-05
 Reference value :  2.02503e-05
 Reference value :  2.02507e-05
 Reference value :  2.02515e-05
 Reference value :  2.02525e-05
 Reference value :  2.02538e-05
 Reference value :  2.02549e-05
 Reference value :  2.02592e-05
 Reference value :  2.02847e-05
 Reference value :  2.05000e-05
 Reference value :  2.05006e-05
 Reference value :  2.05023e-05
 Reference value :  2.05035e-05
 Reference value :  2.05057e-05
 Reference value :  2.05074e-05
 Reference value :  2.05105e-05
 Reference value :  2.05156e-05
 Reference value :  2.05594e-05
 Reference value :  2.07501e-05
 Reference value :  2.07502e-05
 Reference value :  2.07503e-05
 Reference value :  2.07510e-05
 Reference value :  2.07520e-05
 Reference value :  2.07532e-05
 Reference value :  2.07538e-05
 Reference value :  2.07549e-05
 Reference value :  2.07562e-05
 Reference value :  2.07579e-05
 Reference value :  2.07601e-05
 Reference value :  2.07639e-05
 Reference value :  2.07726e-05
 Reference value :  2.08159e-05
 Reference value :  2.09350e-05
 Reference value :  2.10000e-05
 Reference value :  2.10001e-05
 Reference value :  2.10001e-05
 Reference value :  2.10002e-05
 Reference value :  2.10005e-05
 Reference value :  2.10013e-05
 Reference value :  2.10028e-05
 Reference value :  2.10039e-05
 Reference value :  2.10052e-05
 Reference value :  2.10058e-05
 Reference value :  2.10073e-05
 Reference value :  2.10093e-05
 Reference value :  2.10115e-05
 Reference value :  2.10135e-05
 Reference value :  2.10154e-05
 Reference value :  2.10174e-05
 Reference value :  2.10198e-05
 Reference value :  2.10269e-05
 Reference value :  2.10351e-05
 Reference value :  2.10416e-05
 Reference value :  2.10498e-05
 Reference value :  2.10690e-05
 Reference value :  2.10938e-05
 Reference value :  2.12501e-05
 Reference value :  2.12502e-05
 Reference value :  2.12504e-05
 Reference value :  2.12515e-05
 Reference value :  2.12533e-05
 Reference value :  2.12544e-05
 Reference value :  2.12556e-05
 Reference value :  2.12618e-05
 Reference value :  2.13147e-05
 Reference value :  2.15000e-05
 Reference value :  2.15001e-05
 Reference value :  2.15003e-05
 Reference value :  2.15013e-05
 Reference value :  2.15028e-05
 Reference value :  2.15039e-05
 Reference value :  2.15055e-05
 Reference value :  2.15072e-05
 Reference value :  2.15089e-05
 Reference value :  2.15109e-05
 Reference value :  2.15142e-05
 Reference value :  2.15455e-05
 Reference value :  2.17501e-05
 Reference value :  2.17503e-05
 Reference value :  2.17510e-05
 Reference value :  2.17520e-05
 Reference value :  2.17538e-05
 Reference value :  2.17555e-05
 Reference value :  2.17588e-05
 Reference value :  2.18502e-05
 Reference value :  2.20011e-05
 Reference value :  2.20043e-05
 Reference value :  2.20063e-05
 Reference value :  2.20081e-05
 Reference value :  2.20105e-05
 Reference value :  2.20135e-05
 Reference value :  2.20156e-05
 Reference value :  2.20179e-05
 Reference value :  2.20220e-05
 Reference value :  2.20414e-05
 Reference value :  2.20698e-05
 Reference value :  2.22501e-05
 Reference value :  2.22502e-05
 Reference value :  2.22503e-05
 Reference value :  2.22510e-05
 Reference value :  2.22520e-05
 Reference value :  2.22532e-05
 Reference value :  2.22537e-05
 Reference value :  2.22549e-05
 Reference value :  2.22564e-05
 Reference value :  2.22611e-05
 Reference value :  2.23100e-05
 Reference value :  2.25000e-05
 Reference value :  2.25001e-05
 Reference value :  2.25001e-05
 Reference value :  2.25003e-05
 Reference value :  2.25013e-05
 Reference value :  2.25028e-05
 Reference value :  2.25039e-05
 Reference value :  2.25064e-05
 Reference value :  2.25080e-05
 Reference value :  2.25098e-05
 Reference value :  2.25142e-05
 Reference value :  2.25811e-05
 Reference value :  2.27501e-05
 Reference value :  2.27502e-05
 Reference value :  2.27504e-05
 Reference value :  2.27515e-05
 Reference value :  2.27533e-05
 Reference value :  2.27538e-05
 Reference value :  2.27549e-05
 Reference value :  2.27563e-05
 Reference value :  2.27609e-05
 Reference value :  2.28044e-05
 Reference value :  2.30011e-05
 Reference value :  2.30043e-05
 Reference value :  2.30062e-05
 Reference value :  2.30090e-05
 Reference value :  2.30104e-05
 Reference value :  2.30134e-05
 Reference value :  2.30156e-05
 Reference value :  2.30178e-05
 Reference value :  2.30219e-05
 Reference value :  2.30328e-05
 Reference value :  2.30631e-05
 Reference value :  2.30894e-05
 Reference value :  2.31116e-05
 Reference value :  2.31235e-05
 Reference value :  2.31538e-05
 Reference value :  2.32481e-05
 Reference value :  2.32501e-05
 Reference value :  2.32502e-05
 Reference value :  2.32504e-05
 Reference value :  2.32515e-05
 Reference value :  2.32525e-05
 Reference value :  2.32537e-05
 Reference value :  2.32548e-05
 Reference value :  2.32588e-05
 Reference value :  2.33064e-05
 Reference value :  2.35000e-05
 Reference value :  2.35001e-05
 Reference value :  2.35003e-05
 Reference value :  2.35013e-05
 Reference value :  2.35022e-05
 Reference value :  2.35032e-05
 Reference value :  2.35052e-05
 Reference value :  2.35067e-05
 Reference value :  2.35084e-05
 Reference value :  2.35114e-05
 Reference value :  2.35248e-05
 Reference value :  2.35911e-05
 Reference value :  2.37501e-05
 Reference value :  2.37502e-05
 Reference value :  2.37503e-05
 Reference value :  2.37510e-05
 Reference value :  2.37520e-05
 Reference value :  2.37533e-05
 Reference value :  2.37538e-05
 Reference value :  2.37549e-05
 Reference value :  2.37563e-05
 Reference value :  2.37589e-05
 Reference value :  2.37640e-05
 Reference value :  2.37813e-05
 Reference value :  2.39547e-05
 Reference value :  2.40000e-05
 Reference value :  2.40001e-05
 Reference value :  2.40005e-05
 Reference value :  2.40018e-05
 Reference value :  2.40033e-05
 Reference value :  2.40052e-05
 Reference value :  2.40064e-05
 Reference value :  2.40093e-05
 Reference value :  2.40115e-05
 Reference value :  2.40135e-05
 Reference value :  2.40164e-05
 Reference value :  2.40200e-05
 Reference value :  2.40341e-05
 Reference value :  2.40576e-05
 Reference value :  2.40941e-05
 Reference value :  2.41376e-05
 Reference value :  2.42501e-05
 Reference value :  2.42502e-05
 Reference value :  2.42503e-05
 Reference value :  2.42510e-05
 Reference value :  2.42520e-05
 Reference value :  2.42532e-05
 Reference value :  2.42544e-05
 Reference value :  2.42556e-05
 Reference value :  2.42593e-05
 Reference value :  2.42865e-05
 Reference value :  2.45000e-05
 Reference value :  2.45001e-05
 Reference value :  2.45003e-05
 Reference value :  2.45013e-05
 Reference value :  2.45028e-05
 Reference value :  2.45039e-05
 Reference value :  2.45064e-05
 Reference value :  2.45080e-05
 Reference value :  2.45109e-05
 Reference value :  2.45276e-05
 Reference value :  2.47501e-05
 Reference value :  2.47502e-05
 Reference value :  2.47504e-05
 Reference value :  2.47515e-05
 Reference value :  2.47532e-05
 Reference value :  2.47544e-05
 Reference value :  2.47555e-05
 Reference value :  2.47588e-05
 Reference value :  2.47813e-05
 Reference value :  2.50000e-05
 Reference value :  2.50001e-05
 Reference value :  2.50002e-05
 Reference value :  2.50009e-05
 Reference value :  2.50023e-05
 Reference value :  2.50033e-05
 Reference value :  2.50045e-05
 Reference value :  2.50058e-05
 Reference value :  2.50075e-05
 Reference value :  2.50093e-05
 Reference value :  2.50103e-05
 Reference value :  2.50178e-05
 Reference value :  2.50714e-05
 Reference value :  2.52501e-05
 Reference value :  2.52502e-05
 Reference value :  2.52502e-05
 Reference value :  2.52503e-05
 Reference value :  2.52507e-05
 Reference value :  2.52515e-05
 Reference value :  2.52525e-05
 Reference value :  2.52540e-05
 Reference value :  2.52570e-05
 Reference value :  2.52602e-05
 Reference value :  2.52775e-05
 Reference value :  2.55000e-05
 Reference value :  2.55015e-05
 Reference value :  2.55045e-05
 Reference value :  2.55060e-05
 Reference value :  2.55111e-05
 Reference value :  2.55206e-05
 Reference value :  2.55255e-05
 Reference value :  2.55290e-05
 Reference value :  2.55317e-05
 Reference value :  2.55364e-05
 Reference value :  2.55395e-05
 Reference value :  2.55416e-05
 Reference value :  2.55466e-05
 Reference value :  2.55526e-05
 Reference value :  2.55653e-05
 Reference value :  2.55918e-05
 Reference value :  2.56815e-05
 Reference value :  2.57326e-05
 Reference value :  2.57456e-05
 Reference value :  2.57501e-05
 Reference value :  2.57502e-05
 Reference value :  2.57504e-05
 Reference value :  2.57515e-05
 Reference value :  2.57532e-05
 Reference value :  2.57543e-05
 Reference value :  2.57563e-05
 Reference value :  2.57616e-05
 Reference value :  2.58081e-05
 Reference value :  2.60000e-05
 Reference value :  2.60001e-05
 Reference value :  2.60002e-05
 Reference value :  2.60009e-05
 Reference value :  2.60017e-05
 Reference value :  2.60032e-05
 Reference value :  2.60052e-05
 Reference value :  2.60072e-05
 Reference value :  2.60098e-05
 Reference value :  2.60125e-05
 Reference value :  2.60174e-05
 Reference value :  2.60527e-05
 Reference value :  2.62501e-05
 Reference value :  2.62502e-05
 Reference value :  2.62510e-05
 Reference value :  2.62520e-05
 Reference value :  2.62538e-05
 Reference value :  2.62549e-05
 Reference value :  2.62562e-05
 Reference value :  2.62588e-05
 Reference value :  2.62663e-05
 Reference value :  2.63003e-05
 Reference value :  2.64056e-05
 Reference value :  2.65017e-05
 Reference value :  2.65069e-05
 Reference value :  2.65101e-05
 Reference value :  2.65115e-05
 Reference value :  2.65141e-05
 Reference value :  2.65172e-05
 Reference value :  2.65262e-05
 Reference value :  2.65794e-05
 Reference value :  2.67501e-05
 Reference value :  2.67503e-05
 Reference value :  2.67510e-05
 Reference value :  2.67525e-05
 Reference value :  2.67542e-05
 Reference value :  2.67562e-05
 Reference value :  2.67796e-05
 Reference value :  2.70000e-05
 Reference value :  2.70001e-05
 Reference value :  2.70002e-05
 Reference value :  2.70009e-05
 Reference value :  2.70027e-05
 Reference value :  2.70052e-05
 Reference value :  2.70075e-05
 Reference value :  2.70103e-05
 Reference value :  2.70151e-05
 Reference value :  2.70903e-05
 Reference value :  2.72501e-05
 Reference value :  2.72502e-05
 Reference value :  2.72507e-05
 Reference value :  2.72515e-05
 Reference value :  2.72533e-05
 Reference value :  2.72544e-05
 Reference value :  2.72555e-05
 Reference value :  2.72563e-05
 Reference value :  2.72579e-05
 Reference value :  2.72602e-05
 Reference value :  2.72671e-05
 Reference value :  2.72959e-05
 Reference value :  2.75000e-05
 Reference value :  2.75001e-05
 Reference value :  2.75001e-05
 Reference value :  2.75003e-05
 Reference value :  2.75009e-05
 Reference value :  2.75018e-05
 Reference value :  2.75028e-05
 Reference value :  2.75033e-05
 Reference value :  2.75046e-05
 Reference value :  2.75058e-05
 Reference value :  2.75073e-05
 Reference value :  2.75093e-05
 Reference value :  2.75115e-05
 Reference value :  2.75135e-05
 Reference value :  2.75154e-05
 Reference value :  2.75174e-05
 Reference value :  2.75198e-05
 Reference value :  2.75280e-05
 Reference value :  2.75690e-05
 Reference value :  2.76047e-05
 Reference value :  2.76184e-05
 Reference value :  2.76254e-05
 Reference value :  2.76381e-05
 Reference value :  2.76638e-05
 Reference value :  2.77501e-05
 Reference value :  2.77502e-05
 Reference value :  2.77503e-05
 Reference value :  2.77507e-05
 Reference value :  2.77515e-05
 Reference value :  2.77533e-05
 Reference value :  2.77544e-05
 Reference value :  2.77550e-05
 Reference value :  2.77577e-05
 Reference value :  2.77654e-05
 Reference value :  2.78146e-05
 Reference value :  2.80000e-05
 Reference value :  2.80005e-05
 Reference value :  2.80022e-05
 Reference value :  2.80032e-05
 Reference value :  2.80051e-05
 Reference value :  2.80074e-05
 Reference value :  2.80103e-05
 Reference value :  2.80151e-05
 Reference value :  2.80844e-05
 Reference value :  2.82501e-05
 Reference value :  2.82503e-05
 Reference value :  2.82510e-05
 Reference value :  2.82520e-05
 Reference value :  2.82538e-05
 Reference value :  2.82549e-05
 Reference value :  2.82563e-05
 Reference value :  2.82641e-05
 Reference value :  2.83504e-05
 Reference value :  2.85000e-05
 Reference value :  2.85001e-05
 Reference value :  2.85001e-05
 Reference value :  2.85002e-05
 Reference value :  2.85005e-05
 Reference value :  2.85013e-05
 Reference value :  2.85023e-05
 Reference value :  2.85033e-05
 Reference value :  2.85045e-05
 Reference value :  2.85058e-05
 Reference value :  2.85075e-05
 Reference value :  2.85098e-05
 Reference value :  2.85128e-05
 Reference value :  2.85139e-05
 Reference value :  2.85161e-05
 Reference value :  2.85182e-05
 Reference value :  2.85214e-05
 Reference value :  2.85319e-05
 Reference value :  2.85502e-05
 Reference value :  2.85628e-05
 Reference value :  2.85827e-05
 Reference value :  2.85976e-05
 Reference value :  2.86104e-05
 Reference value :  2.86471e-05
 Reference value :  2.87501e-05
 Reference value :  2.87502e-05
 Reference value :  2.87502e-05
 Reference value :  2.87504e-05
 Reference value :  2.87510e-05
 Reference value :  2.87515e-05
 Reference value :  2.87525e-05
 Reference value :  2.87538e-05
 Reference value :  2.87549e-05
 Reference value :  2.87578e-05
 Reference value :  2.87652e-05
 Reference value :  2.88626e-05
 Reference value :  2.90006e-05
 Reference value :  2.90023e-05
 Reference value :  2.90035e-05
 Reference value :  2.90047e-05
 Reference value :  2.90065e-05
 Reference value :  2.90085e-05
 Reference value :  2.90105e-05
 Reference value :  2.90131e-05
 Reference value :  2.90250e-05
 Reference value :  2.90988e-05
 Reference value :  2.92501e-05
 Reference value :  2.92502e-05
 Reference value :  2.92503e-05
 Reference value :  2.92507e-05
 Reference value :  2.92515e-05
 Reference value :  2.92532e-05
 Reference value :  2.92549e-05
 Reference value :  2.92571e-05
 Reference value :  2.92616e-05
 Reference value :  2.93166e-05
 Reference value :  2.95000e-05
 Reference value :  2.95002e-05
 Reference value :  2.95009e-05
 Reference value :  2.95028e-05
 Reference value :  2.95046e-05
 Reference value :  2.95064e-05
 Reference value :  2.95104e-05
 Reference value :  2.95135e-05
 Reference value :  2.95154e-05
 Reference value :  2.95186e-05
 Reference value :  2.95311e-05
 Reference value :  2.95371e-05
 Reference value :  2.95496e-05
 Reference value :  2.95693e-05
 Reference value :  2.96010e-05
 Reference value :  2.97470e-05
 Reference value :  2.97502e-05
 Reference value :  2.97503e-05
 Reference value :  2.97507e-05
 Reference value :  2.97515e-05
 Reference value :  2.97533e-05
 Reference value :  2.97544e-05
 Reference value :  2.97556e-05
 Reference value :  2.97618e-05
 Reference value :  2.98146e-05
 Reference value :  3.00000e-05
 Reference value :  3.00001e-05
 Reference value :  3.00001e-05
 Reference value :  3.00003e-05
 Reference value :  3.00013e-05
 Reference value :  3.00028e-05
 Reference value :  3.00039e-05
 Reference value :  3.00064e-05
 Reference value :  3.00080e-05
 Reference value :  3.00098e-05
 Reference value :  3.00142e-05
 Reference value :  3.00811e-05
 Reference value :  3.02501e-05
 Reference value :  3.02502e-05
 Reference value :  3.02503e-05
 Reference value :  3.02510e-05
 Reference value :  3.02520e-05
 Reference value :  3.02533e-05
 Reference value :  3.02538e-05
 Reference value :  3.02549e-05
 Reference value :  3.02563e-05
 Reference value :  3.02609e-05
 Reference value :  3.02813e-05
 Reference value :  3.05000e-05
 Reference value :  3.05011e-05
 Reference value :  3.05043e-05
 Reference value :  3.05063e-05
 Reference value :  3.05091e-05
 Reference value :  3.05105e-05
 Reference value :  3.05135e-05
 Reference value :  3.05156e-05
 Reference value :  3.05179e-05
 Reference value :  3.05220e-05
 Reference value :  3.05328e-05
 Reference value :  3.05743e-05
 Reference value :  3.06732e-05
 Reference value :  3.07501e-05
 Reference value :  3.07502e-05
 Reference value :  3.07504e-05
 Reference value :  3.07515e-05
 Reference value :  3.07525e-05
 Reference value :  3.07537e-05
 Reference value :  3.07549e-05
 Reference value :  3.07564e-05
 Reference value :  3.07589e-05
 Reference value :  3.07710e-05
 Reference value :  3.08623e-05
 Reference value :  3.10000e-05
 Reference value :  3.10000e-05
 Reference value :  3.10001e-05
 Reference value :  3.10001e-05
 Reference value :  3.10003e-05
 Reference value :  3.10009e-05
 Reference value :  3.10018e-05
 Reference value :  3.10028e-05
 Reference value :  3.10033e-05
 Reference value :  3.10045e-05
 Reference value :  3.10064e-05
 Reference value :  3.10072e-05
 Reference value :  3.10089e-05
 Reference value :  3.10109e-05
 Reference value :  3.10187e-05
 Reference value :  3.11523e-05
 Reference value :  3.12501e-05
 Reference value :  3.12502e-05
 Reference value :  3.12503e-05
 Reference value :  3.12507e-05
 Reference value :  3.12515e-05
 Reference value :  3.12525e-05
 Reference value :  3.12538e-05
 Reference value :  3.12549e-05
 Reference value :  3.12563e-05
 Reference value :  3.12588e-05
 Reference value :  3.12698e-05
 Reference value :  3.13043e-05
 Reference value :  3.14423e-05
 Reference value :  3.15000e-05
 Reference value :  3.15001e-05
 Reference value :  3.15001e-05
 Reference value :  3.15002e-05
 Reference value :  3.15003e-05
 Reference value :  3.15009e-05
 Reference value :  3.15018e-05
 Reference value :  3.15023e-05
 Reference value :  3.15028e-05
 Reference value :  3.15033e-05
 Reference value :  3.15045e-05
 Reference value :  3.15058e-05
 Reference value :  3.15075e-05
 Reference value :  3.15098e-05
 Reference value :  3.15113e-05
 Reference value :  3.15139e-05
 Reference value :  3.15161e-05
 Reference value :  3.15172e-05
 Reference value :  3.15195e-05
 Reference value :  3.15266e-05
 Reference value :  3.15504e-05
 Reference value :  3.16387e-05
 Reference value :  3.17501e-05
 Reference value :  3.17502e-05
 Reference value :  3.17503e-05
 Reference value :  3.17507e-05
 Reference value :  3.17515e-05
 Reference value :  3.17525e-05
 Reference value :  3.17533e-05
 Reference value :  3.17538e-05
 Reference value :  3.17550e-05
 Reference value :  3.17565e-05
 Reference value :  3.17618e-05
 Reference value :  3.17864e-05
 Reference value :  3.20000e-05
 Reference value :  3.20001e-05
 Reference value :  3.20001e-05
 Reference value :  3.20003e-05
 Reference value :  3.20013e-05
 Reference value :  3.20028e-05
 Reference value :  3.20033e-05
 Reference value :  3.20046e-05
 Reference value :  3.20064e-05
 Reference value :  3.20072e-05
 Reference value :  3.20081e-05
 Reference value :  3.20089e-05
 Reference value :  3.20109e-05
 Reference value :  3.20187e-05
 Reference value :  3.20811e-05
 Reference value :  3.22501e-05
 Reference value :  3.22502e-05
 Reference value :  3.22503e-05
 Reference value :  3.22507e-05
 Reference value :  3.22515e-05
 Reference value :  3.22525e-05
 Reference value :  3.22532e-05
 Reference value :  3.22538e-05
 Reference value :  3.22549e-05
 Reference value :  3.22563e-05
 Reference value :  3.22588e-05
 Reference value :  3.22698e-05
 Reference value :  3.23503e-05
 Reference value :  3.25000e-05
 Reference value :  3.25000e-05
 Reference value :  3.25001e-05
 Reference value :  3.25001e-05
 Reference value :  3.25002e-05
 Reference value :  3.25005e-05
 Reference value :  3.25009e-05
 Reference value :  3.25018e-05
 Reference value :  3.25028e-05
 Reference value :  3.25033e-05
 Reference value :  3.25045e-05
 Reference value :  3.25058e-05
 Reference value :  3.25075e-05
 Reference value :  3.25098e-05
 Reference value :  3.25113e-05
 Reference value :  3.25128e-05
 Reference value :  3.25139e-05
 Reference value :  3.25161e-05
 Reference value :  3.25172e-05
 Reference value :  3.25195e-05
 Reference value :  3.25231e-05
 Reference value :  3.25319e-05
 Reference value :  3.25525e-05
 Reference value :  3.25882e-05
 Reference value :  3.26073e-05
 Reference value :  3.26428e-05
 Reference value :  3.26949e-05
 Reference value :  3.27283e-05
 Reference value :  3.27501e-05
 Reference value :  3.27502e-05
 Reference value :  3.27502e-05
 Reference value :  3.27504e-05
 Reference value :  3.27510e-05
 Reference value :  3.27515e-05
 Reference value :  3.27525e-05
 Reference value :  3.27538e-05
 Reference value :  3.27549e-05
 Reference value :  3.27578e-05
 Reference value :  3.27652e-05
 Reference value :  3.28105e-05
 Reference value :  3.30000e-05
 Reference value :  3.30001e-05
 Reference value :  3.30002e-05
 Reference value :  3.30005e-05
 Reference value :  3.30013e-05
 Reference value :  3.30022e-05
 Reference value :  3.30032e-05
 Reference value :  3.30052e-05
 Reference value :  3.30067e-05
 Reference value :  3.30084e-05
 Reference value :  3.30114e-05
 Reference value :  3.30185e-05
 Reference value :  3.30907e-05
 Reference value :  3.32501e-05
 Reference value :  3.32502e-05
 Reference value :  3.32507e-05
 Reference value :  3.32515e-05
 Reference value :  3.32533e-05
 Reference value :  3.32544e-05
 Reference value :  3.32555e-05
 Reference value :  3.32571e-05
 Reference value :  3.32602e-05
 Reference value :  3.32730e-05
 Reference value :  3.33655e-05
 Reference value :  3.35007e-05
 Reference value :  3.35030e-05
 Reference value :  3.35044e-05
 Reference value :  3.35057e-05
 Reference value :  3.35077e-05
 Reference value :  3.35103e-05
 Reference value :  3.35158e-05
 Reference value :  3.35218e-05
 Reference value :  3.35363e-05
 Reference value :  3.35409e-05
 Reference value :  3.35560e-05
 Reference value :  3.35851e-05
 Reference value :  3.37501e-05
 Reference value :  3.37502e-05
 Reference value :  3.37502e-05
 Reference value :  3.37504e-05
 Reference value :  3.37515e-05
 Reference value :  3.37525e-05
 Reference value :  3.37540e-05
 Reference value :  3.37560e-05
 Reference value :  3.37585e-05
 Reference value :  3.37769e-05
 Reference value :  3.40000e-05
 Reference value :  3.40001e-05
 Reference value :  3.40001e-05
 Reference value :  3.40003e-05
 Reference value :  3.40014e-05
 Reference value :  3.40024e-05
 Reference value :  3.40036e-05
 Reference value :  3.40049e-05
 Reference value :  3.40071e-05
 Reference value :  3.40138e-05
 Reference value :  3.40262e-05
 Reference value :  3.40305e-05
 Reference value :  3.40362e-05
 Reference value :  3.40387e-05
 Reference value :  3.40434e-05
 Reference value :  3.40511e-05
 Reference value :  3.40580e-05
 Reference value :  3.40908e-05
 Reference value :  3.41511e-05
 Reference value :  3.41807e-05
 Reference value :  3.42270e-05
 Reference value :  3.42459e-05
 Reference value :  3.42501e-05
 Reference value :  3.42502e-05
 Reference value :  3.42503e-05
 Reference value :  3.42510e-05
 Reference value :  3.42520e-05
 Reference value :  3.42537e-05
 Reference value :  3.42549e-05
 Reference value :  3.42578e-05
 Reference value :  3.42713e-05
 Reference value :  3.44582e-05
 Reference value :  3.45001e-05
 Reference value :  3.45002e-05
 Reference value :  3.45009e-05
 Reference value :  3.45017e-05
 Reference value :  3.45032e-05
 Reference value :  3.45052e-05
 Reference value :  3.45072e-05
 Reference value :  3.45098e-05
 Reference value :  3.45125e-05
 Reference value :  3.45139e-05
 Reference value :  3.45171e-05
 Reference value :  3.45275e-05
 Reference value :  3.45794e-05
 Reference value :  3.47501e-05
 Reference value :  3.47502e-05
 Reference value :  3.47502e-05
 Reference value :  3.47503e-05
 Reference value :  3.47504e-05
 Reference value :  3.47510e-05
 Reference value :  3.47515e-05
 Reference value :  3.47533e-05
 Reference value :  3.47538e-05
 Reference value :  3.47549e-05
 Reference value :  3.47563e-05
 Reference value :  3.47577e-05
 Reference value :  3.47595e-05
 Reference value :  3.47629e-05
 Reference value :  3.47748e-05
 Reference value :  3.47941e-05
 Reference value :  3.48358e-05
 Reference value :  3.50000e-05
 Reference value :  3.50001e-05
 Reference value :  3.50001e-05
 Reference value :  3.50003e-05
 Reference value :  3.50009e-05
 Reference value :  3.50023e-05
 Reference value :  3.50033e-05
 Reference value :  3.50046e-05
 Reference value :  3.50058e-05
 Reference value :  3.50073e-05
 Reference value :  3.50093e-05
 Reference value :  3.50115e-05
 Reference value :  3.50126e-05
 Reference value :  3.50135e-05
 Reference value :  3.50154e-05
 Reference value :  3.50174e-05
 Reference value :  3.50198e-05
 Reference value :  3.50282e-05
 Reference value :  3.50807e-05
 Reference value :  3.52501e-05
 Reference value :  3.52501e-05
 Reference value :  3.52502e-05
 Reference value :  3.52503e-05
 Reference value :  3.52507e-05
 Reference value :  3.52515e-05
 Reference value :  3.52525e-05
 Reference value :  3.52538e-05
 Reference value :  3.52549e-05
 Reference value :  3.52577e-05
 Reference value :  3.52651e-05
 Reference value :  3.53119e-05
 Reference value :  3.54482e-05
 Reference value :  3.55000e-05
 Reference value :  3.55001e-05
 Reference value :  3.55002e-05
 Reference value :  3.55005e-05
 Reference value :  3.55013e-05
 Reference value :  3.55017e-05
 Reference value :  3.55027e-05
 Reference value :  3.55038e-05
 Reference value :  3.55052e-05
 Reference value :  3.55067e-05
 Reference value :  3.55084e-05
 Reference value :  3.55115e-05
 Reference value :  3.55248e-05
 Reference value :  3.56641e-05
 Reference value :  3.57502e-05
 Reference value :  3.57503e-05
 Reference value :  3.57507e-05
 Reference value :  3.57515e-05
 Reference value :  3.57533e-05
 Reference value :  3.57544e-05
 Reference value :  3.57549e-05
 Reference value :  3.57563e-05
 Reference value :  3.57589e-05
 Reference value :  3.57641e-05
 Reference value :  3.57815e-05
 Reference value :  3.59597e-05
 Reference value :  3.60007e-05
 Reference value :  3.60028e-05
 Reference value :  3.60041e-05
 Reference value :  3.60046e-05
 Reference value :  3.60057e-05
 Reference value :  3.60077e-05
 Reference value :  3.60097e-05
 Reference value :  3.60116e-05
 Reference value :  3.60135e-05
 Reference value :  3.60162e-05
 Reference value :  3.60180e-05
 Reference value :  3.60221e-05
 Reference value :  3.60349e-05
 Reference value :  3.60622e-05
 Reference value :  3.60944e-05
 Reference value :  3.61106e-05
 Reference value :  3.61199e-05
 Reference value :  3.61382e-05
 Reference value :  3.61577e-05
 Reference value :  3.62145e-05
 Reference value :  3.62501e-05
 Reference value :  3.62502e-05
 Reference value :  3.62503e-05
 Reference value :  3.62510e-05
 Reference value :  3.62520e-05
 Reference value :  3.62533e-05
 Reference value :  3.62544e-05
 Reference value :  3.62550e-05
 Reference value :  3.62565e-05
 Reference value :  3.62654e-05
 Reference value :  3.65000e-05
 Reference value :  3.65001e-05
 Reference value :  3.65002e-05
 Reference value :  3.65009e-05
 Reference value :  3.65023e-05
 Reference value :  3.65028e-05
 Reference value :  3.65039e-05
 Reference value :  3.65055e-05
 Reference value :  3.65072e-05
 Reference value :  3.65089e-05
 Reference value :  3.65109e-05
 Reference value :  3.65187e-05
 Reference value :  3.66517e-05
 Reference value :  3.67502e-05
 Reference value :  3.67503e-05
 Reference value :  3.67507e-05
 Reference value :  3.67515e-05
 Reference value :  3.67533e-05
 Reference value :  3.67544e-05
 Reference value :  3.67555e-05
 Reference value :  3.67588e-05
 Reference value :  3.67813e-05
 Reference value :  3.70000e-05
 Reference value :  3.70001e-05
 Reference value :  3.70002e-05
 Reference value :  3.70009e-05
 Reference value :  3.70023e-05
 Reference value :  3.70033e-05
 Reference value :  3.70052e-05
 Reference value :  3.70065e-05
 Reference value :  3.70098e-05
 Reference value :  3.70128e-05
 Reference value :  3.70150e-05
 Reference value :  3.70172e-05
 Reference value :  3.70214e-05
 Reference value :  3.70402e-05
 Reference value :  3.70715e-05
 Reference value :  3.70976e-05
 Reference value :  3.71177e-05
 Reference value :  3.71646e-05
 Reference value :  3.72501e-05
 Reference value :  3.72502e-05
 Reference value :  3.72503e-05
 Reference value :  3.72507e-05
 Reference value :  3.72515e-05
 Reference value :  3.72520e-05
 Reference value :  3.72533e-05
 Reference value :  3.72538e-05
 Reference value :  3.72549e-05
 Reference value :  3.72578e-05
 Reference value :  3.72717e-05
 Reference value :  3.74662e-05
 Reference value :  3.75001e-05
 Reference value :  3.75001e-05
 Reference value :  3.75002e-05
 Reference value :  3.75003e-05
 Reference value :  3.75009e-05
 Reference value :  3.75017e-05
 Reference value :  3.75027e-05
 Reference value :  3.75038e-05
 Reference value :  3.75052e-05
 Reference value :  3.75067e-05
 Reference value :  3.75084e-05
 Reference value :  3.75103e-05
 Reference value :  3.75127e-05
 Reference value :  3.75247e-05
 Reference value :  3.75539e-05
 Reference value :  3.76638e-05
 Reference value :  3.77501e-05
 Reference value :  3.77502e-05
 Reference value :  3.77503e-05
 Reference value :  3.77510e-05
 Reference value :  3.77520e-05
 Reference value :  3.77533e-05
 Reference value :  3.77544e-05
 Reference value :  3.77555e-05
 Reference value :  3.77571e-05
 Reference value :  3.77602e-05
 Reference value :  3.77671e-05
 Reference value :  3.77958e-05
 Reference value :  3.80000e-05
 Reference value :  3.80001e-05
 Reference value :  3.80002e-05
 Reference value :  3.80009e-05
 Reference value :  3.80023e-05
 Reference value :  3.80033e-05
 Reference value :  3.80052e-05
 Reference value :  3.80064e-05
 Reference value :  3.80093e-05
 Reference value :  3.80126e-05
 Reference value :  3.80154e-05
 Reference value :  3.80196e-05
 Reference value :  3.80251e-05
 Reference value :  3.80266e-05
 Reference value :  3.80331e-05
 Reference value :  3.80555e-05
 Reference value :  3.80806e-05
 Reference value :  3.81758e-05
 Reference value :  3.82501e-05
 Reference value :  3.82502e-05
 Reference value :  3.82502e-05
 Reference value :  3.82504e-05
 Reference value :  3.82515e-05
 Reference value :  3.82533e-05
 Reference value :  3.82550e-05
 Reference value :  3.82619e-05
 Reference value :  3.83712e-05
 Reference value :  3.85003e-05
 Reference value :  3.85011e-05
 Reference value :  3.85018e-05
 Reference value :  3.85033e-05
 Reference value :  3.85055e-05
 Reference value :  3.85083e-05
 Reference value :  3.85113e-05
 Reference value :  3.85374e-05
 Reference value :  3.87501e-05
 Reference value :  3.87502e-05
 Reference value :  3.87507e-05
 Reference value :  3.87515e-05
 Reference value :  3.87533e-05
 Reference value :  3.87544e-05
 Reference value :  3.87555e-05
 Reference value :  3.87609e-05
 Reference value :  3.89415e-05
 Reference value :  3.90001e-05
 Reference value :  3.90002e-05
 Reference value :  3.90005e-05
 Reference value :  3.90018e-05
 Reference value :  3.90033e-05
 Reference value :  3.90058e-05
 Reference value :  3.90098e-05
 Reference value :  3.90139e-05
 Reference value :  3.90171e-05
 Reference value :  3.90252e-05
 Reference value :  3.90650e-05
 Reference value :  3.91511e-05
 Reference value :  3.92501e-05
 Reference value :  3.92502e-05
 Reference value :  3.92503e-05
 Reference value :  3.92510e-05
 Reference value :  3.92520e-05
 Reference value :  3.92533e-05
 Reference value :  3.92550e-05
 Reference value :  3.92577e-05
 Reference value :  3.92866e-05
 Reference value :  3.95000e-05
 Reference value :  3.95001e-05
 Reference value :  3.95003e-05
 Reference value :  3.95013e-05
 Reference value :  3.95028e-05
 Reference value :  3.95039e-05
 Reference value :  3.95072e-05
 Reference value :  3.95089e-05
 Reference value :  3.95120e-05
 Reference value :  3.95811e-05
 Reference value :  3.97502e-05
 Reference value :  3.97503e-05
 Reference value :  3.97504e-05
 Reference value :  3.97510e-05
 Reference value :  3.97515e-05
 Reference value :  3.97525e-05
 Reference value :  3.97533e-05
 Reference value :  3.97538e-05
 Reference value :  3.97549e-05
 Reference value :  3.97563e-05
 Reference value :  3.97609e-05
 Reference value :  3.98043e-05
 Reference value :  4.00000e-05
 Reference value :  4.00001e-05
 Reference value :  4.00002e-05
 Reference value :  4.00009e-05
 Reference value :  4.00018e-05
 Reference value :  4.00033e-05
 Reference value :  4.00052e-05
 Reference value :  4.00065e-05
 Reference value :  4.00098e-05
 Reference value :  4.00128e-05
 Reference value :  4.00150e-05
 Reference value :  4.00171e-05
 Reference value :  4.00226e-05
 Reference value :  4.00580e-05
 Reference value :  4.02501e-05
 Reference value :  4.02502e-05
 Reference value :  4.02502e-05
 Reference value :  4.02504e-05
 Reference value :  4.02515e-05
 Reference value :  4.02533e-05
 Reference value :  4.02544e-05
 Reference value :  4.02556e-05
 Reference value :  4.02593e-05
 Reference value :  4.02865e-05
 Reference value :  4.05000e-05
 Reference value :  4.05001e-05
 Reference value :  4.05001e-05
 Reference value :  4.05003e-05
 Reference value :  4.05013e-05
 Reference value :  4.05028e-05
 Reference value :  4.05039e-05
 Reference value :  4.05055e-05
 Reference value :  4.05072e-05
 Reference value :  4.05089e-05
 Reference value :  4.05109e-05
 Reference value :  4.05187e-05
 Reference value :  4.06523e-05
 Reference value :  4.07501e-05
 Reference value :  4.07502e-05
 Reference value :  4.07504e-05
 Reference value :  4.07515e-05
 Reference value :  4.07532e-05
 Reference value :  4.07538e-05
 Reference value :  4.07549e-05
 Reference value :  4.07563e-05
 Reference value :  4.07609e-05
 Reference value :  4.08042e-05
 Reference value :  4.10011e-05
 Reference value :  4.10043e-05
 Reference value :  4.10063e-05
 Reference value :  4.10091e-05
 Reference value :  4.10105e-05
 Reference value :  4.10135e-05
 Reference value :  4.10146e-05
 Reference value :  4.10168e-05
 Reference value :  4.10192e-05
 Reference value :  4.10225e-05
 Reference value :  4.10345e-05
 Reference value :  4.11468e-05
 Reference value :  4.12501e-05
 Reference value :  4.12502e-05
 Reference value :  4.12503e-05
 Reference value :  4.12510e-05
 Reference value :  4.12520e-05
 Reference value :  4.12537e-05
 Reference value :  4.12554e-05
 Reference value :  4.12573e-05
 Reference value :  4.12644e-05
 Reference value :  4.13092e-05
 Reference value :  4.15000e-05
 Reference value :  4.15001e-05
 Reference value :  4.15003e-05
 Reference value :  4.15018e-05
 Reference value :  4.15039e-05
 Reference value :  4.15072e-05
 Reference value :  4.15098e-05
 Reference value :  4.15187e-05
 Reference value :  4.17501e-05
 Reference value :  4.17502e-05
 Reference value :  4.17510e-05
 Reference value :  4.17525e-05
 Reference value :  4.17538e-05
 Reference value :  4.17555e-05
 Reference value :  4.17609e-05
 Reference value :  4.19419e-05
 Reference value :  4.20001e-05
 Reference value :  4.20005e-05
 Reference value :  4.20018e-05
 Reference value :  4.20033e-05
 Reference value :  4.20058e-05
 Reference value :  4.20093e-05
 Reference value :  4.20256e-05
 Reference value :  4.22501e-05
 Reference value :  4.22502e-05
 Reference value :  4.22504e-05
 Reference value :  4.22515e-05
 Reference value :  4.22532e-05
 Reference value :  4.22560e-05
 Reference value :  4.22585e-05
 Reference value :  4.22775e-05
 Reference value :  4.25000e-05
 Reference value :  4.25001e-05
 Reference value :  4.25003e-05
 Reference value :  4.25014e-05
 Reference value :  4.25024e-05
 Reference value :  4.25036e-05
 Reference value :  4.25056e-05
 Reference value :  4.25103e-05
 Reference value :  4.25262e-05
 Reference value :  4.25305e-05
 Reference value :  4.25363e-05
 Reference value :  4.25396e-05
 Reference value :  4.25462e-05
 Reference value :  4.25557e-05
 Reference value :  4.25843e-05
 Reference value :  4.26650e-05
 Reference value :  4.27013e-05
 Reference value :  4.27501e-05
 Reference value :  4.27502e-05
 Reference value :  4.27503e-05
 Reference value :  4.27507e-05
 Reference value :  4.27520e-05
 Reference value :  4.27537e-05
 Reference value :  4.27555e-05
 Reference value :  4.27619e-05
 Reference value :  4.28086e-05
 Reference value :  4.30000e-05
 Reference value :  4.30001e-05
 Reference value :  4.30002e-05
 Reference value :  4.30005e-05
 Reference value :  4.30013e-05
 Reference value :  4.30022e-05
 Reference value :  4.30032e-05
 Reference value :  4.30044e-05
 Reference value :  4.30060e-05
 Reference value :  4.30087e-05
 Reference value :  4.30111e-05
 Reference value :  4.30125e-05
 Reference value :  4.30139e-05
 Reference value :  4.30171e-05
 Reference value :  4.30275e-05
 Reference value :  4.31377e-05
 Reference value :  4.32501e-05
 Reference value :  4.32502e-05
 Reference value :  4.32504e-05
 Reference value :  4.32515e-05
 Reference value :  4.32525e-05
 Reference value :  4.32538e-05
 Reference value :  4.32549e-05
 Reference value :  4.32563e-05
 Reference value :  4.32577e-05
 Reference value :  4.32595e-05
 Reference value :  4.32629e-05
 Reference value :  4.32748e-05
 Reference value :  4.33110e-05
 Reference value :  4.34256e-05
 Reference value :  4.35013e-05
 Reference value :  4.35056e-05
 Reference value :  4.35069e-05
 Reference value :  4.35095e-05
 Reference value :  4.35106e-05
 Reference value :  4.35128e-05
 Reference value :  4.35162e-05
 Reference value :  4.35183e-05
 Reference value :  4.35228e-05
 Reference value :  4.35523e-05
 Reference value :  4.36883e-05
 Reference value :  4.37501e-05
 Reference value :  4.37502e-05
 Reference value :  4.37504e-05
 Reference value :  4.37515e-05
 Reference value :  4.37532e-05
 Reference value :  4.37543e-05
 Reference value :  4.37554e-05
 Reference value :  4.37589e-05
 Reference value :  4.37840e-05
 Reference value :  4.39369e-05
 Reference value :  4.40001e-05
 Reference value :  4.40002e-05
 Reference value :  4.40009e-05
 Reference value :  4.40017e-05
 Reference value :  4.40032e-05
 Reference value :  4.40052e-05
 Reference value :  4.40067e-05
 Reference value :  4.40084e-05
 Reference value :  4.40114e-05
 Reference value :  4.40358e-05
 Reference value :  4.41667e-05
 Reference value :  4.42501e-05
 Reference value :  4.42502e-05
 Reference value :  4.42503e-05
 Reference value :  4.42510e-05
 Reference value :  4.42520e-05
 Reference value :  4.42533e-05
 Reference value :  4.42544e-05
 Reference value :  4.42555e-05
 Reference value :  4.42579e-05
 Reference value :  4.42616e-05
 Reference value :  4.42814e-05
 Reference value :  4.43668e-05
 Reference value :  4.45000e-05
 Reference value :  4.45001e-05
 Reference value :  4.45002e-05
 Reference value :  4.45009e-05
 Reference value :  4.45023e-05
 Reference value :  4.45033e-05
 Reference value :  4.45046e-05
 Reference value :  4.45058e-05
 Reference value :  4.45082e-05
 Reference value :  4.45104e-05
 Reference value :  4.45126e-05
 Reference value :  4.45144e-05
 Reference value :  4.45164e-05
 Reference value :  4.45197e-05
 Reference value :  4.45268e-05
 Reference value :  4.45559e-05
 Reference value :  4.46025e-05
 Reference value :  4.46200e-05
 Reference value :  4.46500e-05
 Reference value :  4.47427e-05
 Reference value :  4.47501e-05
 Reference value :  4.47502e-05
 Reference value :  4.47507e-05
 Reference value :  4.47515e-05
 Reference value :  4.47525e-05
 Reference value :  4.47538e-05
 Reference value :  4.47550e-05
 Reference value :  4.47577e-05
 Reference value :  4.47724e-05
 Reference value :  4.49689e-05
 Reference value :  4.50001e-05
 Reference value :  4.50001e-05
 Reference value :  4.50003e-05
 Reference value :  4.50009e-05
 Reference value :  4.50018e-05
 Reference value :  4.50028e-05
 Reference value :  4.50039e-05
 Reference value :  4.50055e-05
 Reference value :  4.50072e-05
 Reference value :  4.50089e-05
 Reference value :  4.50109e-05
 Reference value :  4.50187e-05
 Reference value :  4.50811e-05
 Reference value :  4.52501e-05
 Reference value :  4.52502e-05
 Reference value :  4.52503e-05
 Reference value :  4.52507e-05
 Reference value :  4.52515e-05
 Reference value :  4.52533e-05
 Reference value :  4.52544e-05
 Reference value :  4.52555e-05
 Reference value :  4.52588e-05
 Reference value :  4.53043e-05
 Reference value :  4.55000e-05
 Reference value :  4.55001e-05
 Reference value :  4.55005e-05
 Reference value :  4.55018e-05
 Reference value :  4.55033e-05
 Reference value :  4.55052e-05
 Reference value :  4.55065e-05
 Reference value :  4.55098e-05
 Reference value :  4.55139e-05
 Reference value :  4.55172e-05
 Reference value :  4.55214e-05
 Reference value :  4.55402e-05
 Reference value :  4.55726e-05
 Reference value :  4.55998e-05
 Reference value :  4.56295e-05
 Reference value :  4.57501e-05
 Reference value :  4.57502e-05
 Reference value :  4.57503e-05
 Reference value :  4.57510e-05
 Reference value :  4.57520e-05
 Reference value :  4.57538e-05
 Reference value :  4.57549e-05
 Reference value :  4.57592e-05
 Reference value :  4.57847e-05
 Reference value :  4.59131e-05
 Reference value :  4.60000e-05
 Reference value :  4.60003e-05
 Reference value :  4.60013e-05
 Reference value :  4.60019e-05
 Reference value :  4.60029e-05
 Reference value :  4.60049e-05
 Reference value :  4.60065e-05
 Reference value :  4.60082e-05
 Reference value :  4.60101e-05
 Reference value :  4.60146e-05
 Reference value :  4.60352e-05
 Reference value :  4.60871e-05
 Reference value :  4.61709e-05
 Reference value :  4.62501e-05
 Reference value :  4.62502e-05
 Reference value :  4.62503e-05
 Reference value :  4.62507e-05
 Reference value :  4.62515e-05
 Reference value :  4.62526e-05
 Reference value :  4.62538e-05
 Reference value :  4.62550e-05
 Reference value :  4.62563e-05
 Reference value :  4.62611e-05
 Reference value :  4.63089e-05
 Reference value :  4.65000e-05
 Reference value :  4.65001e-05
 Reference value :  4.65002e-05
 Reference value :  4.65005e-05
 Reference value :  4.65013e-05
 Reference value :  4.65023e-05
 Reference value :  4.65033e-05
 Reference value :  4.65052e-05
 Reference value :  4.65065e-05
 Reference value :  4.65098e-05
 Reference value :  4.65128e-05
 Reference value :  4.65139e-05
 Reference value :  4.65161e-05
 Reference value :  4.65171e-05
 Reference value :  4.65193e-05
 Reference value :  4.65252e-05
 Reference value :  4.65340e-05
 Reference value :  4.65371e-05
 Reference value :  4.65399e-05
 Reference value :  4.65458e-05
 Reference value :  4.65544e-05
 Reference value :  4.65736e-05
 Reference value :  4.66136e-05
 Reference value :  4.67501e-05
 Reference value :  4.67502e-05
 Reference value :  4.67503e-05
 Reference value :  4.67510e-05
 Reference value :  4.67520e-05
 Reference value :  4.67533e-05
 Reference value :  4.67538e-05
 Reference value :  4.67549e-05
 Reference value :  4.67578e-05
 Reference value :  4.67653e-05
 Reference value :  4.68108e-05
 Reference value :  4.70000e-05
 Reference value :  4.70001e-05
 Reference value :  4.70001e-05
 Reference value :  4.70003e-05
 Reference value :  4.70009e-05
 Reference value :  4.70017e-05
 Reference value :  4.70027e-05
 Reference value :  4.70032e-05
 Reference value :  4.70044e-05
 Reference value :  4.70052e-05
 Reference value :  4.70067e-05
 Reference value :  4.70084e-05
 Reference value :  4.70103e-05
 Reference value :  4.70114e-05
 Reference value :  4.70185e-05
 Reference value :  4.70541e-05
 Reference value :  4.72501e-05
 Reference value :  4.72502e-05
 Reference value :  4.72502e-05
 Reference value :  4.72504e-05
 Reference value :  4.72510e-05
 Reference value :  4.72520e-05
 Reference value :  4.72533e-05
 Reference value :  4.72538e-05
 Reference value :  4.72549e-05
 Reference value :  4.72563e-05
 Reference value :  4.72589e-05
 Reference value :  4.72641e-05
 Reference value :  4.72814e-05
 Reference value :  4.73669e-05
 Reference value :  4.75000e-05
 Reference value :  4.75001e-05
 Reference value :  4.75002e-05
 Reference value :  4.75009e-05
 Reference value :  4.75018e-05
 Reference value :  4.75028e-05
 Reference value :  4.75039e-05
 Reference value :  4.75052e-05
 Reference value :  4.75064e-05
 Reference value :  4.75082e-05
 Reference value :  4.75104e-05
 Reference value :  4.75126e-05
 Reference value :  4.75143e-05
 Reference value :  4.75164e-05
 Reference value :  4.75196e-05
 Reference value :  4.75264e-05
 Reference value :  4.75610e-05
 Reference value :  4.76227e-05
 Reference value :  4.77085e-05
 Reference value :  4.77501e-05
 Reference value :  4.77502e-05
 Reference value :  4.77504e-05
 Reference value :  4.77515e-05
 Reference value :  4.77533e-05
 Reference value :  4.77544e-05
 Reference value :  4.77556e-05
 Reference value :  4.77592e-05
 Reference value :  4.77853e-05
 Reference value :  4.80000e-05
 Reference value :  4.80001e-05
 Reference value :  4.80002e-05
 Reference value :  4.80009e-05
 Reference value :  4.80017e-05
 Reference value :  4.80032e-05
 Reference value :  4.80052e-05
 Reference value :  4.80067e-05
 Reference value :  4.80084e-05
 Reference value :  4.80114e-05
 Reference value :  4.80186e-05
 Reference value :  4.80918e-05
 Reference value :  4.82501e-05
 Reference value :  4.82502e-05
 Reference value :  4.82503e-05
 Reference value :  4.82507e-05
 Reference value :  4.82515e-05
 Reference value :  4.82525e-05
 Reference value :  4.82538e-05
 Reference value :  4.82549e-05
 Reference value :  4.82563e-05
 Reference value :  4.82589e-05
 Reference value :  4.82641e-05
 Reference value :  4.82958e-05
 Reference value :  4.85000e-05
 Reference value :  4.85001e-05
 Reference value :  4.85001e-05
 Reference value :  4.85003e-05
 Reference value :  4.85009e-05
 Reference value :  4.85018e-05
 Reference value :  4.85028e-05
 Reference value :  4.85033e-05
 Reference value :  4.85046e-05
 Reference value :  4.85058e-05
 Reference value :  4.85073e-05
 Reference value :  4.85104e-05
 Reference value :  4.85126e-05
 Reference value :  4.85143e-05
 Reference value :  4.85164e-05
 Reference value :  4.85185e-05
 Reference value :  4.85213e-05
 Reference value :  4.85374e-05
 Reference value :  4.85937e-05
 Reference value :  4.87501e-05
 Reference value :  4.87502e-05
 Reference value :  4.87504e-05
[...]
 Reference value :  2.59754e-04
 Reference value :  2.59755e-04
 Reference value :  2.59756e-04
 Reference value :  2.59764e-04
 Reference value :  2.59850e-04
 Reference value :  2.60000e-04
 Reference value :  2.60000e-04
 Reference value :  2.60000e-04
 Reference value :  2.60001e-04
 Reference value :  2.60003e-04
 Reference value :  2.60004e-04
 Reference value :  2.60006e-04
 Reference value :  2.60010e-04
 Reference value :  2.60014e-04
 Reference value :  2.60017e-04
 Reference value :  2.60023e-04
 Reference value :  2.60047e-04
 Reference value :  2.60143e-04
 Reference value :  2.60250e-04
 Reference value :  2.60250e-04
 Reference value :  2.60250e-04
 Reference value :  2.60252e-04
 Reference value :  2.60253e-04
 Reference value :  2.60255e-04
 Reference value :  2.60259e-04
 Reference value :  2.60315e-04
 Reference value :  2.60500e-04
 Reference value :  2.60500e-04
 Reference value :  2.60500e-04
 Reference value :  2.60501e-04
 Reference value :  2.60502e-04
 Reference value :  2.60503e-04
 Reference value :  2.60505e-04
 Reference value :  2.60507e-04
 Reference value :  2.60509e-04
 Reference value :  2.60512e-04
 Reference value :  2.60581e-04
 Reference value :  2.60750e-04
 Reference value :  2.60750e-04
 Reference value :  2.60751e-04
 Reference value :  2.60752e-04
 Reference value :  2.60753e-04
 Reference value :  2.60754e-04
 Reference value :  2.60755e-04
 Reference value :  2.60756e-04
 Reference value :  2.60761e-04
 Reference value :  2.60781e-04
 Reference value :  2.60942e-04
 Reference value :  2.61000e-04
 Reference value :  2.61000e-04
 Reference value :  2.61000e-04
 Reference value :  2.61001e-04
 Reference value :  2.61002e-04
 Reference value :  2.61003e-04
 Reference value :  2.61004e-04
 Reference value :  2.61006e-04
 Reference value :  2.61010e-04
 Reference value :  2.61013e-04
 Reference value :  2.61016e-04
 Reference value :  2.61018e-04
 Reference value :  2.61030e-04
 Reference value :  2.61181e-04
 Reference value :  2.61250e-04
 Reference value :  2.61251e-04
 Reference value :  2.61252e-04
 Reference value :  2.61254e-04
 Reference value :  2.61255e-04
 Reference value :  2.61259e-04
 Reference value :  2.61287e-04
 Reference value :  2.61500e-04
 Reference value :  2.61500e-04
 Reference value :  2.61500e-04
 Reference value :  2.61501e-04
 Reference value :  2.61503e-04
 Reference value :  2.61504e-04
 Reference value :  2.61506e-04
 Reference value :  2.61508e-04
 Reference value :  2.61511e-04
 Reference value :  2.61545e-04
 Reference value :  2.61750e-04
 Reference value :  2.61750e-04
 Reference value :  2.61751e-04
 Reference value :  2.61753e-04
 Reference value :  2.61754e-04
 Reference value :  2.61755e-04
 Reference value :  2.61757e-04
 Reference value :  2.61781e-04
 Reference value :  2.62000e-04
 Reference value :  2.62000e-04
 Reference value :  2.62000e-04
 Reference value :  2.62001e-04
 Reference value :  2.62003e-04
 Reference value :  2.62004e-04
 Reference value :  2.62006e-04
 Reference value :  2.62010e-04
 Reference value :  2.62014e-04
 Reference value :  2.62016e-04
 Reference value :  2.62018e-04
 Reference value :  2.62023e-04
 Reference value :  2.62056e-04
 Reference value :  2.62250e-04
 Reference value :  2.62250e-04
 Reference value :  2.62250e-04
 Reference value :  2.62251e-04
 Reference value :  2.62252e-04
 Reference value :  2.62253e-04
 Reference value :  2.62254e-04
 Reference value :  2.62255e-04
 Reference value :  2.62258e-04
 Reference value :  2.62272e-04
 Reference value :  2.62483e-04
 Reference value :  2.62500e-04
 Reference value :  2.62500e-04
 Reference value :  2.62500e-04
 Reference value :  2.62501e-04
 Reference value :  2.62502e-04
 Reference value :  2.62503e-04
 Reference value :  2.62505e-04
 Reference value :  2.62507e-04
 Reference value :  2.62509e-04
 Reference value :  2.62514e-04
 Reference value :  2.62750e-04
 Reference value :  2.62750e-04
 Reference value :  2.62750e-04
 Reference value :  2.62751e-04
 Reference value :  2.62753e-04
 Reference value :  2.62754e-04
 Reference value :  2.62755e-04
 Reference value :  2.62757e-04
 Reference value :  2.62764e-04
 Reference value :  2.62850e-04
 Reference value :  2.63000e-04
 Reference value :  2.63000e-04
 Reference value :  2.63000e-04
 Reference value :  2.63001e-04
 Reference value :  2.63003e-04
 Reference value :  2.63004e-04
 Reference value :  2.63005e-04
 Reference value :  2.63006e-04
 Reference value :  2.63007e-04
 Reference value :  2.63010e-04
 Reference value :  2.63026e-04
 Reference value :  2.63250e-04
 Reference value :  2.63250e-04
 Reference value :  2.63250e-04
 Reference value :  2.63250e-04
 Reference value :  2.63251e-04
 Reference value :  2.63252e-04
 Reference value :  2.63253e-04
 Reference value :  2.63255e-04
 Reference value :  2.63259e-04
 Reference value :  2.63268e-04
 Reference value :  2.63335e-04
 Reference value :  2.63500e-04
 Reference value :  2.63500e-04
 Reference value :  2.63500e-04
 Reference value :  2.63501e-04
 Reference value :  2.63501e-04
 Reference value :  2.63502e-04
 Reference value :  2.63504e-04
 Reference value :  2.63505e-04
 Reference value :  2.63506e-04
 Reference value :  2.63508e-04
 Reference value :  2.63520e-04
 Reference value :  2.63526e-04
 Reference value :  2.63531e-04
 Reference value :  2.63536e-04
 Reference value :  2.63540e-04
 Reference value :  2.63546e-04
 Reference value :  2.63556e-04
 Reference value :  2.63578e-04
 Reference value :  2.63631e-04
 Reference value :  2.63750e-04
 Reference value :  2.63750e-04
 Reference value :  2.63750e-04
 Reference value :  2.63750e-04
 Reference value :  2.63751e-04
 Reference value :  2.63752e-04
 Reference value :  2.63754e-04
 Reference value :  2.63755e-04
 Reference value :  2.63758e-04
 Reference value :  2.63765e-04
 Reference value :  2.63812e-04
 Reference value :  2.63855e-04
 Reference value :  2.63896e-04
 Reference value :  2.63930e-04
 Reference value :  2.63949e-04
 Reference value :  2.63984e-04
 Reference value :  2.64000e-04
 Reference value :  2.64000e-04
 Reference value :  2.64000e-04
 Reference value :  2.64000e-04
 Reference value :  2.64001e-04
 Reference value :  2.64003e-04
 Reference value :  2.64004e-04
 Reference value :  2.64007e-04
 Reference value :  2.64010e-04
 Reference value :  2.64012e-04
 Reference value :  2.64017e-04
 Reference value :  2.64036e-04
 Reference value :  2.64250e-04
 Reference value :  2.64250e-04
 Reference value :  2.64250e-04
 Reference value :  2.64252e-04
 Reference value :  2.64253e-04
 Reference value :  2.64254e-04
 Reference value :  2.64255e-04
 Reference value :  2.64257e-04
 Reference value :  2.64259e-04
 Reference value :  2.64263e-04
 Reference value :  2.64275e-04
 Reference value :  2.64311e-04
 Reference value :  2.64425e-04
 Reference value :  2.64500e-04
 Reference value :  2.64500e-04
 Reference value :  2.64500e-04
 Reference value :  2.64501e-04
 Reference value :  2.64502e-04
 Reference value :  2.64503e-04
 Reference value :  2.64505e-04
 Reference value :  2.64506e-04
 Reference value :  2.64509e-04
 Reference value :  2.64513e-04
 Reference value :  2.64515e-04
 Reference value :  2.64519e-04
 Reference value :  2.64523e-04
 Reference value :  2.64584e-04
 Reference value :  2.64678e-04
 Reference value :  2.64715e-04
 Reference value :  2.64738e-04
 Reference value :  2.64750e-04
 Reference value :  2.64750e-04
 Reference value :  2.64750e-04
 Reference value :  2.64751e-04
 Reference value :  2.64751e-04
 Reference value :  2.64753e-04
 Reference value :  2.64754e-04
 Reference value :  2.64755e-04
 Reference value :  2.64756e-04
 Reference value :  2.64765e-04
 Reference value :  2.64871e-04
 Reference value :  2.65000e-04
 Reference value :  2.65000e-04
 Reference value :  2.65000e-04
 Reference value :  2.65001e-04
 Reference value :  2.65001e-04
 Reference value :  2.65002e-04
 Reference value :  2.65003e-04
 Reference value :  2.65005e-04
 Reference value :  2.65006e-04
 Reference value :  2.65007e-04
 Reference value :  2.65009e-04
 Reference value :  2.65011e-04
 Reference value :  2.65019e-04
 Reference value :  2.65081e-04
 Reference value :  2.65250e-04
 Reference value :  2.65250e-04
 Reference value :  2.65250e-04
 Reference value :  2.65251e-04
 Reference value :  2.65252e-04
 Reference value :  2.65253e-04
 Reference value :  2.65254e-04
 Reference value :  2.65255e-04
 Reference value :  2.65256e-04
 Reference value :  2.65261e-04
 Reference value :  2.65281e-04
 Reference value :  2.65442e-04
 Reference value :  2.65500e-04
 Reference value :  2.65500e-04
 Reference value :  2.65500e-04
 Reference value :  2.65501e-04
 Reference value :  2.65503e-04
 Reference value :  2.65504e-04
 Reference value :  2.65506e-04
 Reference value :  2.65508e-04
 Reference value :  2.65510e-04
 Reference value :  2.65513e-04
 Reference value :  2.65515e-04
 Reference value :  2.65517e-04
 Reference value :  2.65521e-04
 Reference value :  2.65539e-04
 Reference value :  2.65558e-04
 Reference value :  2.65572e-04
 Reference value :  2.65585e-04
 Reference value :  2.65621e-04
 Reference value :  2.65735e-04
 Reference value :  2.65750e-04
 Reference value :  2.65750e-04
 Reference value :  2.65750e-04
 Reference value :  2.65751e-04
 Reference value :  2.65752e-04
 Reference value :  2.65753e-04
 Reference value :  2.65754e-04
 Reference value :  2.65756e-04
 Reference value :  2.65759e-04
 Reference value :  2.65785e-04
 Reference value :  2.66000e-04
 Reference value :  2.66000e-04
 Reference value :  2.66000e-04
 Reference value :  2.66000e-04
 Reference value :  2.66001e-04
 Reference value :  2.66002e-04
 Reference value :  2.66003e-04
 Reference value :  2.66004e-04
 Reference value :  2.66005e-04
 Reference value :  2.66007e-04
 Reference value :  2.66008e-04
 Reference value :  2.66011e-04
 Reference value :  2.66025e-04
 Reference value :  2.66164e-04
 Reference value :  2.66250e-04
 Reference value :  2.66250e-04
 Reference value :  2.66250e-04
 Reference value :  2.66250e-04
 Reference value :  2.66251e-04
 Reference value :  2.66252e-04
 Reference value :  2.66253e-04
 Reference value :  2.66253e-04
 Reference value :  2.66254e-04
 Reference value :  2.66255e-04
 Reference value :  2.66256e-04
 Reference value :  2.66258e-04
 Reference value :  2.66260e-04
 Reference value :  2.66264e-04
 Reference value :  2.66281e-04
 Reference value :  2.66460e-04
 Reference value :  2.66500e-04
 Reference value :  2.66500e-04
 Reference value :  2.66500e-04
 Reference value :  2.66501e-04
 Reference value :  2.66503e-04
 Reference value :  2.66504e-04
 Reference value :  2.66506e-04
 Reference value :  2.66508e-04
 Reference value :  2.66511e-04
 Reference value :  2.66514e-04
 Reference value :  2.66515e-04
 Reference value :  2.66519e-04
 Reference value :  2.66528e-04
 Reference value :  2.66578e-04
 Reference value :  2.66592e-04
 Reference value :  2.66601e-04
 Reference value :  2.66618e-04
 Reference value :  2.66636e-04
 Reference value :  2.66679e-04
 Reference value :  2.66750e-04
 Reference value :  2.66750e-04
 Reference value :  2.66750e-04
 Reference value :  2.66750e-04
 Reference value :  2.66751e-04
 Reference value :  2.66752e-04
 Reference value :  2.66753e-04
 Reference value :  2.66754e-04
 Reference value :  2.66755e-04
 Reference value :  2.66758e-04
 Reference value :  2.66765e-04
 Reference value :  2.66983e-04
 Reference value :  2.67000e-04
 Reference value :  2.67000e-04
 Reference value :  2.67000e-04
 Reference value :  2.67001e-04
 Reference value :  2.67002e-04
 Reference value :  2.67003e-04
 Reference value :  2.67005e-04
 Reference value :  2.67006e-04
 Reference value :  2.67007e-04
 Reference value :  2.67009e-04
 Reference value :  2.67011e-04
 Reference value :  2.67019e-04
 Reference value :  2.67081e-04
 Reference value :  2.67250e-04
 Reference value :  2.67250e-04
 Reference value :  2.67250e-04
 Reference value :  2.67250e-04
 Reference value :  2.67250e-04
 Reference value :  2.67251e-04
 Reference value :  2.67252e-04
 Reference value :  2.67253e-04
 Reference value :  2.67254e-04
 Reference value :  2.67255e-04
 Reference value :  2.67256e-04
 Reference value :  2.67259e-04
 Reference value :  2.67270e-04
 Reference value :  2.67350e-04
 Reference value :  2.67500e-04
 Reference value :  2.67500e-04
 Reference value :  2.67500e-04
 Reference value :  2.67500e-04
 Reference value :  2.67501e-04
 Reference value :  2.67503e-04
 Reference value :  2.67504e-04
 Reference value :  2.67506e-04
 Reference value :  2.67508e-04
 Reference value :  2.67510e-04
 Reference value :  2.67514e-04
 Reference value :  2.67516e-04
 Reference value :  2.67518e-04
 Reference value :  2.67523e-04
 Reference value :  2.67532e-04
 Reference value :  2.67541e-04
 Reference value :  2.67547e-04
 Reference value :  2.67554e-04
 Reference value :  2.67566e-04
 Reference value :  2.67604e-04
 Reference value :  2.67747e-04
 Reference value :  2.67750e-04
 Reference value :  2.67750e-04
 Reference value :  2.67750e-04
 Reference value :  2.67752e-04
 Reference value :  2.67753e-04
 Reference value :  2.67754e-04
 Reference value :  2.67755e-04
 Reference value :  2.67758e-04
 Reference value :  2.67772e-04
 Reference value :  2.67863e-04
 Reference value :  2.68000e-04
 Reference value :  2.68000e-04
 Reference value :  2.68000e-04
 Reference value :  2.68001e-04
 Reference value :  2.68001e-04
 Reference value :  2.68002e-04
 Reference value :  2.68003e-04
 Reference value :  2.68005e-04
 Reference value :  2.68007e-04
 Reference value :  2.68008e-04
 Reference value :  2.68011e-04
 Reference value :  2.68025e-04
 Reference value :  2.68165e-04
 Reference value :  2.68250e-04
 Reference value :  2.68250e-04
 Reference value :  2.68250e-04
 Reference value :  2.68252e-04
 Reference value :  2.68253e-04
 Reference value :  2.68254e-04
 Reference value :  2.68255e-04
 Reference value :  2.68257e-04
 Reference value :  2.68260e-04
 Reference value :  2.68273e-04
 Reference value :  2.68367e-04
 Reference value :  2.68500e-04
 Reference value :  2.68500e-04
 Reference value :  2.68500e-04
 Reference value :  2.68501e-04
 Reference value :  2.68503e-04
 Reference value :  2.68504e-04
 Reference value :  2.68506e-04
 Reference value :  2.68508e-04
 Reference value :  2.68510e-04
 Reference value :  2.68513e-04
 Reference value :  2.68514e-04
 Reference value :  2.68517e-04
 Reference value :  2.68521e-04
 Reference value :  2.68539e-04
 Reference value :  2.68575e-04
 Reference value :  2.68666e-04
 Reference value :  2.68734e-04
 Reference value :  2.68750e-04
 Reference value :  2.68750e-04
 Reference value :  2.68750e-04
 Reference value :  2.68752e-04
 Reference value :  2.68753e-04
 Reference value :  2.68754e-04
 Reference value :  2.68756e-04
 Reference value :  2.68762e-04
 Reference value :  2.68812e-04
 Reference value :  2.69000e-04
 Reference value :  2.69000e-04
 Reference value :  2.69000e-04
 Reference value :  2.69001e-04
 Reference value :  2.69002e-04
 Reference value :  2.69003e-04
 Reference value :  2.69005e-04
 Reference value :  2.69007e-04
 Reference value :  2.69008e-04
 Reference value :  2.69011e-04
 Reference value :  2.69025e-04
 Reference value :  2.69166e-04
 Reference value :  2.69250e-04
 Reference value :  2.69250e-04
 Reference value :  2.69250e-04
 Reference value :  2.69251e-04
 Reference value :  2.69252e-04
 Reference value :  2.69253e-04
 Reference value :  2.69254e-04
 Reference value :  2.69255e-04
 Reference value :  2.69256e-04
 Reference value :  2.69258e-04
 Reference value :  2.69262e-04
 Reference value :  2.69273e-04
 Reference value :  2.69367e-04
 Reference value :  2.69500e-04
 Reference value :  2.69500e-04
 Reference value :  2.69500e-04
 Reference value :  2.69501e-04
 Reference value :  2.69503e-04
 Reference value :  2.69504e-04
 Reference value :  2.69506e-04
 Reference value :  2.69508e-04
 Reference value :  2.69510e-04
 Reference value :  2.69513e-04
 Reference value :  2.69514e-04
 Reference value :  2.69517e-04
 Reference value :  2.69521e-04
 Reference value :  2.69531e-04
 Reference value :  2.69554e-04
 Reference value :  2.69617e-04
 Reference value :  2.69750e-04
 Reference value :  2.69750e-04
 Reference value :  2.69750e-04
 Reference value :  2.69751e-04
 Reference value :  2.69752e-04
 Reference value :  2.69753e-04
 Reference value :  2.69754e-04
 Reference value :  2.69755e-04
 Reference value :  2.69758e-04
 Reference value :  2.69772e-04
 Reference value :  2.69973e-04
 Reference value :  2.70000e-04
 Reference value :  2.70000e-04
 Reference value :  2.70001e-04
 Reference value :  2.70002e-04
 Reference value :  2.70003e-04
 Reference value :  2.70005e-04
 Reference value :  2.70007e-04
 Reference value :  2.70009e-04
 Reference value :  2.70011e-04
 Reference value :  2.70025e-04
 Reference value :  2.70250e-04
 Reference value :  2.70250e-04
 Reference value :  2.70250e-04
 Reference value :  2.70251e-04
 Reference value :  2.70252e-04
 Reference value :  2.70253e-04
 Reference value :  2.70254e-04
 Reference value :  2.70255e-04
 Reference value :  2.70257e-04
 Reference value :  2.70260e-04
 Reference value :  2.70267e-04
 Reference value :  2.70296e-04
 Reference value :  2.70500e-04
 Reference value :  2.70500e-04
 Reference value :  2.70500e-04
 Reference value :  2.70501e-04
 Reference value :  2.70502e-04
 Reference value :  2.70503e-04
 Reference value :  2.70505e-04
 Reference value :  2.70506e-04
 Reference value :  2.70507e-04
 Reference value :  2.70509e-04
 Reference value :  2.70513e-04
 Reference value :  2.70514e-04
 Reference value :  2.70517e-04
 Reference value :  2.70521e-04
 Reference value :  2.70538e-04
 Reference value :  2.70563e-04
 Reference value :  2.70571e-04
 Reference value :  2.70599e-04
 Reference value :  2.70649e-04
 Reference value :  2.70750e-04
 Reference value :  2.70750e-04
 Reference value :  2.70750e-04
 Reference value :  2.70750e-04
 Reference value :  2.70751e-04
 Reference value :  2.70753e-04
 Reference value :  2.70754e-04
 Reference value :  2.70755e-04
 Reference value :  2.70758e-04
 Reference value :  2.70772e-04
 Reference value :  2.70871e-04
 Reference value :  2.71000e-04
 Reference value :  2.71000e-04
 Reference value :  2.71000e-04
 Reference value :  2.71000e-04
 Reference value :  2.71000e-04
 Reference value :  2.71001e-04
 Reference value :  2.71002e-04
 Reference value :  2.71003e-04
 Reference value :  2.71004e-04
 Reference value :  2.71005e-04
 Reference value :  2.71007e-04
 Reference value :  2.71008e-04
 Reference value :  2.71009e-04
 Reference value :  2.71011e-04
 Reference value :  2.71019e-04
 Reference value :  2.71081e-04
 Reference value :  2.71250e-04
 Reference value :  2.71250e-04
 Reference value :  2.71250e-04
 Reference value :  2.71251e-04
 Reference value :  2.71252e-04
 Reference value :  2.71253e-04
 Reference value :  2.71254e-04
 Reference value :  2.71255e-04
 Reference value :  2.71256e-04
 Reference value :  2.71259e-04
 Reference value :  2.71264e-04
 Reference value :  2.71281e-04
 Reference value :  2.71350e-04
 Reference value :  2.71500e-04
 Reference value :  2.71500e-04
 Reference value :  2.71500e-04
 Reference value :  2.71500e-04
 Reference value :  2.71501e-04
 Reference value :  2.71502e-04
 Reference value :  2.71503e-04
 Reference value :  2.71504e-04
 Reference value :  2.71506e-04
 Reference value :  2.71507e-04
 Reference value :  2.71510e-04
 Reference value :  2.71518e-04
 Reference value :  2.71541e-04
 Reference value :  2.71750e-04
 Reference value :  2.71750e-04
 Reference value :  2.71750e-04
 Reference value :  2.71750e-04
 Reference value :  2.71751e-04
 Reference value :  2.71752e-04
 Reference value :  2.71753e-04
 Reference value :  2.71755e-04
 Reference value :  2.71757e-04
 Reference value :  2.71760e-04
 Reference value :  2.71777e-04
 Reference value :  2.71911e-04
No. of Data Rows : 39117
ngspice-44 done
