
Note: Compatibility modes selected: hs a


Circuit: ** sch_path: /home/ece/cace/sar-adc-using-sky130-pdk/runs/run_2025-09-09_04-40-29/parameters/sampling_rate/run_15/sampling_rate.sch

option SCALE: Scale is set to 1e-06 for instance and model parameters
option SCALE: Scale is set to 1e-06 for instance and model parameters
option SCALE: Scale is set to 1e-06 for instance and model parameters
option SCALE: Scale is set to 1e-06 for instance and model parameters
Doing analysis at TEMP = 27.000000 and TNOM = 27.000000

Using KLU as Direct Linear Solver
Operating point simulation skipped by 'uic',
  now using transient initial conditions.
 Reference value :  1.00000e-12
 Reference value :  1.02772e-12
 Reference value :  1.08316e-12
 Reference value :  1.19404e-12
 Reference value :  1.33846e-12
 Reference value :  1.62729e-12
 Reference value :  2.20497e-12
 Reference value :  3.05967e-12
 Reference value :  3.96279e-12
 Reference value :  5.17607e-12
 Reference value :  6.89262e-12
 Reference value :  1.02353e-11
 Reference value :  1.40707e-11
 Reference value :  2.08835e-11
 Reference value :  2.75765e-11
 Reference value :  3.66461e-11
 Reference value :  4.78772e-11
 Reference value :  6.59739e-11
 Reference value :  8.68713e-11
 Reference value :  1.00000e-10
 Reference value :  1.01088e-10
 Reference value :  1.03265e-10
 Reference value :  1.07617e-10
 Reference value :  1.16323e-10
 Reference value :  1.33734e-10
 Reference value :  1.68557e-10
 Reference value :  2.38202e-10
 Reference value :  3.77493e-10
 Reference value :  5.35229e-10
 Reference value :  7.80579e-10
 Reference value :  1.11121e-09
 Reference value :  1.50479e-09
 Reference value :  2.17572e-09
 Reference value :  2.87842e-09
 Reference value :  3.74141e-09
 Reference value :  4.51888e-09
 Reference value :  5.35509e-09
 Reference value :  6.65570e-09
 Reference value :  7.89660e-09
 Reference value :  9.04636e-09
 Reference value :  9.87094e-09
 Reference value :  1.07672e-08
 Reference value :  1.17930e-08
 Reference value :  1.28233e-08
 Reference value :  1.48004e-08
 Reference value :  1.72838e-08
 Reference value :  2.17814e-08
 Reference value :  2.58608e-08
 Reference value :  2.93366e-08
 Reference value :  3.32187e-08
 Reference value :  3.63967e-08
 Reference value :  3.96776e-08
 Reference value :  4.36613e-08
 Reference value :  4.95652e-08
 Reference value :  5.81976e-08
 Reference value :  7.43806e-08
 Reference value :  9.77203e-08
 Reference value :  2.08912e-07
 Reference value :  2.50110e-07
 Reference value :  2.50130e-07
 Reference value :  2.50170e-07
 Reference value :  2.50200e-07
 Reference value :  2.50201e-07
 Reference value :  2.50202e-07
 Reference value :  2.50204e-07
 Reference value :  2.50208e-07
 Reference value :  2.50216e-07
 Reference value :  2.50233e-07
 Reference value :  2.50266e-07
 Reference value :  2.50332e-07
 Reference value :  2.50408e-07
 Reference value :  2.50559e-07
 Reference value :  2.50706e-07
 Reference value :  2.51000e-07
 Reference value :  2.51329e-07
 Reference value :  2.51814e-07
 Reference value :  2.52369e-07
 Reference value :  2.52973e-07
 Reference value :  2.53861e-07
 Reference value :  2.54730e-07
 Reference value :  2.55539e-07
 Reference value :  2.56397e-07
 Reference value :  2.57284e-07
 Reference value :  2.58159e-07
 Reference value :  2.59692e-07
 Reference value :  2.61760e-07
 Reference value :  2.63982e-07
 Reference value :  2.67676e-07
 Reference value :  2.73180e-07
 Reference value :  2.84189e-07
 Reference value :  3.06206e-07
 Reference value :  3.46161e-07
 Reference value :  4.26070e-07
 Reference value :  5.00000e-07
 Reference value :  5.00010e-07
 Reference value :  5.00030e-07
 Reference value :  5.00070e-07
 Reference value :  5.00100e-07
 Reference value :  5.00104e-07
 Reference value :  5.00113e-07
 Reference value :  5.00130e-07
 Reference value :  5.00163e-07
 Reference value :  5.00231e-07
 Reference value :  5.00366e-07
 Reference value :  5.00553e-07
 Reference value :  5.00927e-07
 Reference value :  5.01510e-07
 Reference value :  5.02040e-07
 Reference value :  5.02609e-07
 Reference value :  5.03288e-07
 Reference value :  5.04079e-07
 Reference value :  5.04829e-07
 Reference value :  5.05642e-07
 Reference value :  5.06668e-07
 Reference value :  5.07755e-07
 Reference value :  5.09486e-07
 Reference value :  5.12227e-07
 Reference value :  5.14062e-07
 Reference value :  5.16137e-07
 Reference value :  5.18338e-07
 Reference value :  5.20723e-07
 Reference value :  5.23450e-07
 Reference value :  5.27988e-07
 Reference value :  5.34633e-07
 Reference value :  5.45822e-07
 Reference value :  5.65435e-07
 Reference value :  6.59309e-07
 Reference value :  7.50110e-07
 Reference value :  7.50130e-07
 Reference value :  7.50170e-07
 Reference value :  7.50200e-07
 Reference value :  7.50201e-07
 Reference value :  7.50202e-07
 Reference value :  7.50205e-07
 Reference value :  7.50211e-07
 Reference value :  7.50223e-07
 Reference value :  7.50247e-07
 Reference value :  7.50295e-07
 Reference value :  7.50390e-07
 Reference value :  7.50580e-07
 Reference value :  7.50954e-07
 Reference value :  7.51429e-07
 Reference value :  7.51992e-07
 Reference value :  7.52594e-07
 Reference value :  7.53250e-07
 Reference value :  7.54105e-07
 Reference value :  7.54725e-07
 Reference value :  7.55452e-07
 Reference value :  7.56121e-07
 Reference value :  7.56853e-07
 Reference value :  7.57765e-07
 Reference value :  7.58760e-07
 Reference value :  7.60750e-07
 Reference value :  7.62908e-07
 Reference value :  7.66537e-07
 Reference value :  7.71134e-07
 Reference value :  7.80328e-07
 Reference value :  7.98716e-07
 Reference value :  8.35491e-07
 Reference value :  9.09042e-07
 Reference value :  1.00000e-06
 Reference value :  1.00001e-06
 Reference value :  1.00003e-06
 Reference value :  1.00007e-06
 Reference value :  1.00010e-06
 Reference value :  1.00010e-06
 Reference value :  1.00011e-06
 Reference value :  1.00013e-06
 Reference value :  1.00016e-06
 Reference value :  1.00023e-06
 Reference value :  1.00036e-06
 Reference value :  1.00055e-06
 Reference value :  1.00092e-06
 Reference value :  1.00145e-06
 Reference value :  1.00198e-06
 Reference value :  1.00255e-06
 Reference value :  1.00322e-06
 Reference value :  1.00397e-06
 Reference value :  1.00472e-06
 Reference value :  1.00541e-06
 Reference value :  1.00613e-06
 Reference value :  1.00694e-06
 Reference value :  1.00770e-06
 Reference value :  1.00853e-06
 Reference value :  1.00971e-06
 Reference value :  1.01103e-06
 Reference value :  1.01329e-06
 Reference value :  1.01571e-06
 Reference value :  1.01765e-06
 Reference value :  1.01939e-06
 Reference value :  1.02066e-06
 Reference value :  1.02205e-06
 Reference value :  1.02362e-06
 Reference value :  1.02517e-06
 Reference value :  1.02703e-06
 Reference value :  1.02974e-06
 Reference value :  1.03265e-06
 Reference value :  1.03847e-06
 Reference value :  1.04760e-06
 Reference value :  1.06256e-06
 Reference value :  1.08252e-06
 Reference value :  1.11507e-06
 Reference value :  1.16795e-06
 Reference value :  1.23268e-06
 Reference value :  1.25010e-06
 Reference value :  1.25011e-06
 Reference value :  1.25013e-06
 Reference value :  1.25017e-06
 Reference value :  1.25020e-06
 Reference value :  1.25020e-06
 Reference value :  1.25020e-06
 Reference value :  1.25021e-06
 Reference value :  1.25021e-06
 Reference value :  1.25022e-06
 Reference value :  1.25025e-06
 Reference value :  1.25029e-06
 Reference value :  1.25039e-06
 Reference value :  1.25057e-06
 Reference value :  1.25090e-06
 Reference value :  1.25140e-06
 Reference value :  1.25202e-06
 Reference value :  1.25261e-06
 Reference value :  1.25328e-06
 Reference value :  1.25410e-06
 Reference value :  1.25471e-06
 Reference value :  1.25542e-06
 Reference value :  1.25626e-06
 Reference value :  1.25711e-06
 Reference value :  1.25821e-06
 Reference value :  1.25999e-06
 Reference value :  1.26194e-06
 Reference value :  1.26489e-06
 Reference value :  1.26876e-06
 Reference value :  1.27651e-06
 Reference value :  1.29201e-06
 Reference value :  1.32299e-06
 Reference value :  1.38497e-06
 Reference value :  1.50000e-06
 Reference value :  1.50001e-06
 Reference value :  1.50003e-06
 Reference value :  1.50007e-06
 Reference value :  1.50010e-06
 Reference value :  1.50010e-06
 Reference value :  1.50011e-06
 Reference value :  1.50013e-06
 Reference value :  1.50016e-06
 Reference value :  1.50023e-06
 Reference value :  1.50037e-06
 Reference value :  1.50054e-06
 Reference value :  1.50090e-06
 Reference value :  1.50139e-06
 Reference value :  1.50191e-06
 Reference value :  1.50245e-06
 Reference value :  1.50312e-06
 Reference value :  1.50378e-06
 Reference value :  1.50453e-06
 Reference value :  1.50540e-06
 Reference value :  1.50622e-06
 Reference value :  1.50751e-06
 Reference value :  1.50884e-06
 Reference value :  1.51012e-06
 Reference value :  1.51142e-06
 Reference value :  1.51306e-06
 Reference value :  1.51458e-06
 Reference value :  1.51633e-06
 Reference value :  1.51816e-06
 Reference value :  1.52181e-06
 Reference value :  1.52877e-06
 Reference value :  1.54021e-06
 Reference value :  1.56308e-06
 Reference value :  1.60883e-06
 Reference value :  1.75010e-06
 Reference value :  1.75011e-06
 Reference value :  1.75013e-06
 Reference value :  1.75017e-06
 Reference value :  1.75020e-06
 Reference value :  1.75020e-06
 Reference value :  1.75020e-06
 Reference value :  1.75021e-06
 Reference value :  1.75025e-06
 Reference value :  1.75029e-06
 Reference value :  1.75039e-06
 Reference value :  1.75091e-06
 Reference value :  1.75204e-06
 Reference value :  1.75262e-06
 Reference value :  1.75330e-06
 Reference value :  1.75414e-06
 Reference value :  1.75475e-06
 Reference value :  1.75545e-06
 Reference value :  1.75613e-06
 Reference value :  1.75686e-06
 Reference value :  1.75781e-06
 Reference value :  1.76098e-06
 Reference value :  1.76695e-06
 Reference value :  1.77180e-06
 Reference value :  1.80090e-06
 Reference value :  1.91732e-06
 Reference value :  2.00001e-06
 Reference value :  2.00003e-06
 Reference value :  2.00010e-06
 Reference value :  2.00010e-06
 Reference value :  2.00011e-06
 Reference value :  2.00016e-06
 Reference value :  2.00023e-06
 Reference value :  2.00036e-06
 Reference value :  2.00054e-06
 Reference value :  2.00089e-06
 Reference value :  2.00139e-06
 Reference value :  2.00190e-06
 Reference value :  2.00244e-06
 Reference value :  2.00310e-06
 Reference value :  2.00375e-06
 Reference value :  2.00453e-06
 Reference value :  2.00519e-06
 Reference value :  2.00590e-06
 Reference value :  2.00674e-06
 Reference value :  2.00748e-06
 Reference value :  2.00826e-06
 Reference value :  2.00933e-06
 Reference value :  2.01037e-06
 Reference value :  2.01227e-06
 Reference value :  2.01467e-06
 Reference value :  2.01664e-06
 Reference value :  2.01870e-06
 Reference value :  2.02020e-06
 Reference value :  2.02160e-06
 Reference value :  2.02284e-06
 Reference value :  2.02423e-06
 Reference value :  2.02576e-06
 Reference value :  2.02804e-06
 Reference value :  2.03019e-06
 Reference value :  2.03426e-06
 Reference value :  2.04002e-06
 Reference value :  2.04900e-06
 Reference value :  2.05859e-06
 Reference value :  2.06760e-06
 Reference value :  2.07780e-06
 Reference value :  2.08481e-06
 Reference value :  2.09168e-06
 Reference value :  2.09799e-06
 Reference value :  2.10491e-06
 Reference value :  2.11225e-06
 Reference value :  2.12007e-06
 Reference value :  2.12814e-06
 Reference value :  2.14376e-06
 Reference value :  2.16150e-06
 Reference value :  2.18985e-06
 Reference value :  2.23656e-06
 Reference value :  2.25010e-06
 Reference value :  2.25011e-06
 Reference value :  2.25013e-06
 Reference value :  2.25017e-06
 Reference value :  2.25020e-06
 Reference value :  2.25020e-06
 Reference value :  2.25020e-06
 Reference value :  2.25021e-06
 Reference value :  2.25021e-06
 Reference value :  2.25022e-06
 Reference value :  2.25025e-06
 Reference value :  2.25029e-06
 Reference value :  2.25039e-06
 Reference value :  2.25057e-06
 Reference value :  2.25090e-06
 Reference value :  2.25139e-06
 Reference value :  2.25202e-06
 Reference value :  2.25260e-06
 Reference value :  2.25328e-06
 Reference value :  2.25412e-06
 Reference value :  2.25472e-06
 Reference value :  2.25541e-06
 Reference value :  2.25623e-06
 Reference value :  2.25717e-06
 Reference value :  2.25818e-06
 Reference value :  2.26208e-06
 Reference value :  2.26905e-06
 Reference value :  2.29194e-06
 Reference value :  2.32247e-06
 Reference value :  2.38353e-06
 Reference value :  2.48295e-06
 Reference value :  2.50000e-06
 Reference value :  2.50001e-06
 Reference value :  2.50003e-06
 Reference value :  2.50007e-06
 Reference value :  2.50010e-06
 Reference value :  2.50010e-06
 Reference value :  2.50011e-06
 Reference value :  2.50013e-06
 Reference value :  2.50016e-06
 Reference value :  2.50023e-06
 Reference value :  2.50036e-06
 Reference value :  2.50054e-06
 Reference value :  2.50089e-06
 Reference value :  2.50139e-06
 Reference value :  2.50190e-06
 Reference value :  2.50240e-06
 Reference value :  2.50303e-06
 Reference value :  2.50367e-06
 Reference value :  2.50454e-06
 Reference value :  2.50535e-06
 Reference value :  2.50628e-06
 Reference value :  2.50760e-06
 Reference value :  2.50904e-06
 Reference value :  2.51044e-06
 Reference value :  2.51186e-06
 Reference value :  2.51315e-06
 Reference value :  2.51457e-06
 Reference value :  2.51596e-06
 Reference value :  2.51760e-06
 Reference value :  2.52088e-06
 Reference value :  2.52589e-06
 Reference value :  2.53590e-06
 Reference value :  2.55594e-06
 Reference value :  2.59600e-06
 Reference value :  2.67614e-06
 Reference value :  2.75010e-06
 Reference value :  2.75011e-06
 Reference value :  2.75013e-06
 Reference value :  2.75017e-06
 Reference value :  2.75020e-06
 Reference value :  2.75020e-06
 Reference value :  2.75020e-06
 Reference value :  2.75021e-06
 Reference value :  2.75021e-06
 Reference value :  2.75022e-06
 Reference value :  2.75029e-06
 Reference value :  2.75039e-06
 Reference value :  2.75058e-06
 Reference value :  2.75091e-06
 Reference value :  2.75140e-06
 Reference value :  2.75198e-06
 Reference value :  2.75258e-06
 Reference value :  2.75323e-06
 Reference value :  2.75407e-06
 Reference value :  2.75468e-06
 Reference value :  2.75540e-06
 Reference value :  2.75605e-06
 Reference value :  2.75677e-06
 Reference value :  2.75767e-06
 Reference value :  2.75866e-06
 Reference value :  2.75968e-06
 Reference value :  2.76118e-06
 Reference value :  2.76283e-06
 Reference value :  2.76511e-06
 Reference value :  2.76792e-06
 Reference value :  2.77213e-06
 Reference value :  2.78054e-06
 Reference value :  2.79634e-06
 Reference value :  2.82793e-06
 Reference value :  2.89110e-06
 Reference value :  3.00000e-06
 Reference value :  3.00001e-06
 Reference value :  3.00003e-06
 Reference value :  3.00007e-06
 Reference value :  3.00010e-06
 Reference value :  3.00010e-06
 Reference value :  3.00011e-06
 Reference value :  3.00013e-06
 Reference value :  3.00016e-06
 Reference value :  3.00023e-06
 Reference value :  3.00036e-06
 Reference value :  3.00054e-06
 Reference value :  3.00089e-06
 Reference value :  3.00139e-06
 Reference value :  3.00190e-06
 Reference value :  3.00243e-06
 Reference value :  3.00309e-06
 Reference value :  3.00375e-06
 Reference value :  3.00452e-06
 Reference value :  3.00515e-06
 Reference value :  3.00585e-06
 Reference value :  3.00654e-06
 Reference value :  3.00723e-06
 Reference value :  3.00797e-06
 Reference value :  3.00889e-06
 Reference value :  3.00988e-06
 Reference value :  3.01155e-06
 Reference value :  3.01316e-06
 Reference value :  3.01461e-06
 Reference value :  3.01613e-06
 Reference value :  3.01769e-06
 Reference value :  3.01890e-06
 Reference value :  3.02007e-06
 Reference value :  3.02152e-06
 Reference value :  3.02289e-06
 Reference value :  3.02421e-06
 Reference value :  3.02588e-06
 Reference value :  3.02810e-06
 Reference value :  3.03449e-06
 Reference value :  3.04960e-06
 Reference value :  3.05947e-06
 Reference value :  3.06844e-06
 Reference value :  3.07237e-06
 Reference value :  3.07624e-06
 Reference value :  3.08036e-06
 Reference value :  3.08703e-06
 Reference value :  3.09515e-06
 Reference value :  3.10690e-06
 Reference value :  3.12402e-06
 Reference value :  3.15011e-06
 Reference value :  3.18277e-06
 Reference value :  3.25010e-06
 Reference value :  3.25011e-06
 Reference value :  3.25013e-06
 Reference value :  3.25017e-06
 Reference value :  3.25020e-06
 Reference value :  3.25020e-06
 Reference value :  3.25020e-06
 Reference value :  3.25021e-06
 Reference value :  3.25021e-06
 Reference value :  3.25022e-06
 Reference value :  3.25025e-06
 Reference value :  3.25029e-06
 Reference value :  3.25039e-06
 Reference value :  3.25057e-06
 Reference value :  3.25090e-06
 Reference value :  3.25139e-06
 Reference value :  3.25202e-06
 Reference value :  3.25260e-06
 Reference value :  3.25328e-06
 Reference value :  3.25412e-06
 Reference value :  3.25474e-06
 Reference value :  3.25544e-06
 Reference value :  3.25636e-06
 Reference value :  3.25721e-06
 Reference value :  3.25833e-06
 Reference value :  3.26034e-06
 Reference value :  3.26228e-06
 Reference value :  3.26551e-06
 Reference value :  3.26947e-06
 Reference value :  3.27738e-06
 Reference value :  3.29319e-06
 Reference value :  3.32482e-06
 Reference value :  3.38808e-06
 Reference value :  3.50000e-06
 Reference value :  3.50001e-06
 Reference value :  3.50003e-06
 Reference value :  3.50007e-06
 Reference value :  3.50010e-06
 Reference value :  3.50010e-06
 Reference value :  3.50011e-06
 Reference value :  3.50016e-06
 Reference value :  3.50023e-06
 Reference value :  3.50037e-06
 Reference value :  3.50054e-06
 Reference value :  3.50090e-06
 Reference value :  3.50140e-06
 Reference value :  3.50191e-06
 Reference value :  3.50245e-06
 Reference value :  3.50312e-06
 Reference value :  3.50378e-06
 Reference value :  3.50452e-06
 Reference value :  3.50537e-06
 Reference value :  3.50620e-06
 Reference value :  3.50732e-06
 Reference value :  3.50872e-06
 Reference value :  3.50990e-06
 Reference value :  3.51113e-06
 Reference value :  3.51249e-06
 Reference value :  3.51405e-06
 Reference value :  3.51570e-06
 Reference value :  3.51745e-06
 Reference value :  3.52096e-06
 Reference value :  3.52683e-06
 Reference value :  3.53803e-06
 Reference value :  3.56041e-06
 Reference value :  3.60517e-06
 Reference value :  3.69470e-06
 Reference value :  3.75010e-06
 Reference value :  3.75011e-06
 Reference value :  3.75013e-06
 Reference value :  3.75017e-06
 Reference value :  3.75020e-06
 Reference value :  3.75020e-06
 Reference value :  3.75020e-06
 Reference value :  3.75021e-06
 Reference value :  3.75021e-06
 Reference value :  3.75022e-06
 Reference value :  3.75025e-06
 Reference value :  3.75029e-06
 Reference value :  3.75039e-06
 Reference value :  3.75058e-06
 Reference value :  3.75091e-06
 Reference value :  3.75140e-06
 Reference value :  3.75198e-06
 Reference value :  3.75258e-06
 Reference value :  3.75322e-06
 Reference value :  3.75406e-06
 Reference value :  3.75468e-06
 Reference value :  3.75539e-06
 Reference value :  3.75604e-06
 Reference value :  3.75676e-06
 Reference value :  3.75766e-06
 Reference value :  3.75865e-06
 Reference value :  3.76064e-06
 Reference value :  3.76273e-06
 Reference value :  3.76627e-06
 Reference value :  3.77062e-06
 Reference value :  3.77932e-06
 Reference value :  3.79672e-06
 Reference value :  3.83151e-06
 Reference value :  3.90110e-06
 Reference value :  4.00000e-06
 Reference value :  4.00001e-06
 Reference value :  4.00003e-06
 Reference value :  4.00007e-06
 Reference value :  4.00010e-06
 Reference value :  4.00010e-06
 Reference value :  4.00011e-06
 Reference value :  4.00013e-06
 Reference value :  4.00016e-06
 Reference value :  4.00023e-06
 Reference value :  4.00036e-06
 Reference value :  4.00054e-06
 Reference value :  4.00089e-06
 Reference value :  4.00139e-06
 Reference value :  4.00190e-06
 Reference value :  4.00243e-06
 Reference value :  4.00310e-06
 Reference value :  4.00375e-06
 Reference value :  4.00453e-06
 Reference value :  4.00519e-06
 Reference value :  4.00590e-06
 Reference value :  4.00678e-06
 Reference value :  4.00756e-06
 Reference value :  4.00837e-06
 Reference value :  4.00945e-06
 Reference value :  4.01059e-06
 Reference value :  4.01261e-06
 Reference value :  4.01505e-06
 Reference value :  4.01692e-06
 Reference value :  4.01897e-06
 Reference value :  4.02064e-06
 Reference value :  4.02241e-06
 Reference value :  4.02416e-06
 Reference value :  4.02628e-06
 Reference value :  4.02820e-06
 Reference value :  4.03108e-06
 Reference value :  4.03485e-06
 Reference value :  4.04064e-06
 Reference value :  4.04753e-06
 Reference value :  4.05491e-06
 Reference value :  4.06026e-06
 Reference value :  4.06588e-06
 Reference value :  4.07134e-06
 Reference value :  4.07726e-06
 Reference value :  4.08528e-06
 Reference value :  4.09166e-06
 Reference value :  4.09928e-06
 Reference value :  4.10999e-06
 Reference value :  4.12744e-06
 Reference value :  4.15085e-06
 Reference value :  4.18853e-06
 Reference value :  4.24695e-06
 Reference value :  4.25010e-06
 Reference value :  4.25011e-06
 Reference value :  4.25013e-06
 Reference value :  4.25017e-06
 Reference value :  4.25020e-06
 Reference value :  4.25020e-06
 Reference value :  4.25020e-06
 Reference value :  4.25021e-06
 Reference value :  4.25022e-06
 Reference value :  4.25025e-06
 Reference value :  4.25039e-06
 Reference value :  4.25057e-06
 Reference value :  4.25090e-06
 Reference value :  4.25139e-06
 Reference value :  4.25202e-06
 Reference value :  4.25260e-06
 Reference value :  4.25328e-06
 Reference value :  4.25412e-06
 Reference value :  4.25472e-06
 Reference value :  4.25540e-06
 Reference value :  4.25624e-06
 Reference value :  4.25721e-06
 Reference value :  4.25821e-06
 Reference value :  4.26019e-06
 Reference value :  4.26210e-06
 Reference value :  4.26524e-06
 Reference value :  4.26909e-06
 Reference value :  4.27679e-06
 Reference value :  4.29218e-06
 Reference value :  4.32297e-06
 Reference value :  4.38455e-06
 Reference value :  4.50000e-06
 Reference value :  4.50001e-06
 Reference value :  4.50003e-06
 Reference value :  4.50007e-06
 Reference value :  4.50010e-06
 Reference value :  4.50010e-06
 Reference value :  4.50011e-06
 Reference value :  4.50013e-06
 Reference value :  4.50016e-06
 Reference value :  4.50023e-06
 Reference value :  4.50037e-06
 Reference value :  4.50054e-06
 Reference value :  4.50090e-06
 Reference value :  4.50139e-06
 Reference value :  4.50191e-06
 Reference value :  4.50242e-06
 Reference value :  4.50304e-06
 Reference value :  4.50369e-06
 Reference value :  4.50456e-06
 Reference value :  4.50534e-06
 Reference value :  4.50628e-06
 Reference value :  4.50743e-06
 Reference value :  4.50870e-06
 Reference value :  4.50990e-06
 Reference value :  4.51112e-06
 Reference value :  4.51229e-06
 Reference value :  4.51360e-06
 Reference value :  4.51493e-06
 Reference value :  4.51644e-06
 Reference value :  4.51946e-06
 Reference value :  4.52550e-06
 Reference value :  4.53607e-06
 Reference value :  4.55720e-06
 Reference value :  4.59947e-06
 Reference value :  4.68400e-06
 Reference value :  4.75010e-06
 Reference value :  4.75011e-06
 Reference value :  4.75013e-06
 Reference value :  4.75017e-06
 Reference value :  4.75020e-06
 Reference value :  4.75020e-06
 Reference value :  4.75020e-06
 Reference value :  4.75021e-06
 Reference value :  4.75021e-06
 Reference value :  4.75022e-06
 Reference value :  4.75025e-06
 Reference value :  4.75029e-06
 Reference value :  4.75039e-06
 Reference value :  4.75058e-06
 Reference value :  4.75091e-06
 Reference value :  4.75140e-06
 Reference value :  4.75204e-06
 Reference value :  4.75261e-06
 Reference value :  4.75330e-06
 Reference value :  4.75415e-06
 Reference value :  4.75476e-06
 Reference value :  4.75545e-06
 Reference value :  4.75615e-06
 Reference value :  4.75689e-06
 Reference value :  4.75788e-06
 Reference value :  4.75894e-06
 Reference value :  4.76007e-06
 Reference value :  4.76153e-06
 Reference value :  4.76365e-06
 Reference value :  4.76566e-06
 Reference value :  4.76933e-06
 Reference value :  4.77391e-06
 Reference value :  4.78307e-06
 Reference value :  4.80139e-06
 Reference value :  4.83803e-06
 Reference value :  4.91132e-06
 Reference value :  5.00000e-06
 Reference value :  5.00001e-06
 Reference value :  5.00003e-06
 Reference value :  5.00007e-06
 Reference value :  5.00010e-06
 Reference value :  5.00011e-06
 Reference value :  5.00013e-06
 Reference value :  5.00016e-06
 Reference value :  5.00023e-06
 Reference value :  5.00036e-06
 Reference value :  5.00054e-06
 Reference value :  5.00089e-06
 Reference value :  5.00138e-06
 Reference value :  5.00189e-06
 Reference value :  5.00243e-06
 Reference value :  5.00309e-06
 Reference value :  5.00374e-06
 Reference value :  5.00451e-06
 Reference value :  5.00514e-06
 Reference value :  5.00584e-06
 Reference value :  5.00652e-06
 Reference value :  5.00720e-06
 Reference value :  5.00792e-06
 Reference value :  5.00898e-06
 Reference value :  5.00994e-06
 Reference value :  5.01179e-06
 Reference value :  5.01294e-06
 Reference value :  5.01429e-06
 Reference value :  5.01560e-06
 Reference value :  5.01715e-06
 Reference value :  5.01864e-06
 Reference value :  5.02003e-06
 Reference value :  5.02153e-06
 Reference value :  5.02288e-06
 Reference value :  5.02428e-06
 Reference value :  5.02595e-06
 Reference value :  5.02774e-06
 Reference value :  5.02978e-06
 Reference value :  5.03152e-06
 Reference value :  5.03331e-06
 Reference value :  5.03539e-06
 Reference value :  5.03741e-06
 Reference value :  5.04145e-06
 Reference value :  5.04717e-06
 Reference value :  5.05487e-06
 Reference value :  5.06722e-06
 Reference value :  5.07943e-06
 Reference value :  5.09441e-06
 Reference value :  5.11435e-06
 Reference value :  5.15424e-06
 Reference value :  5.25010e-06
 Reference value :  5.25011e-06
 Reference value :  5.25013e-06
 Reference value :  5.25017e-06
 Reference value :  5.25020e-06
 Reference value :  5.25020e-06
 Reference value :  5.25020e-06
 Reference value :  5.25021e-06
 Reference value :  5.25021e-06
 Reference value :  5.25022e-06
 Reference value :  5.25025e-06
 Reference value :  5.25029e-06
 Reference value :  5.25039e-06
 Reference value :  5.25057e-06
 Reference value :  5.25090e-06
 Reference value :  5.25139e-06
 Reference value :  5.25201e-06
 Reference value :  5.25260e-06
 Reference value :  5.25328e-06
 Reference value :  5.25413e-06
 Reference value :  5.25474e-06
 Reference value :  5.25545e-06
 Reference value :  5.25637e-06
 Reference value :  5.25724e-06
 Reference value :  5.25835e-06
 Reference value :  5.26043e-06
 Reference value :  5.26237e-06
 Reference value :  5.26569e-06
 Reference value :  5.26967e-06
 Reference value :  5.27763e-06
 Reference value :  5.29355e-06
 Reference value :  5.32540e-06
 Reference value :  5.38909e-06
 Reference value :  5.50000e-06
 Reference value :  5.50001e-06
 Reference value :  5.50003e-06
 Reference value :  5.50007e-06
 Reference value :  5.50010e-06
 Reference value :  5.50010e-06
 Reference value :  5.50011e-06
 Reference value :  5.50013e-06
 Reference value :  5.50016e-06
 Reference value :  5.50023e-06
 Reference value :  5.50037e-06
 Reference value :  5.50054e-06
 Reference value :  5.50090e-06
 Reference value :  5.50139e-06
 Reference value :  5.50191e-06
 Reference value :  5.50245e-06
 Reference value :  5.50312e-06
 Reference value :  5.50378e-06
 Reference value :  5.50452e-06
 Reference value :  5.50540e-06
 Reference value :  5.50622e-06
 Reference value :  5.50751e-06
 Reference value :  5.50884e-06
 Reference value :  5.51008e-06
 Reference value :  5.51151e-06
 Reference value :  5.51284e-06
 Reference value :  5.51422e-06
 Reference value :  5.51576e-06
 Reference value :  5.51750e-06
 Reference value :  5.52059e-06
 Reference value :  5.52511e-06
 Reference value :  5.53370e-06
 Reference value :  5.54967e-06
 Reference value :  5.57935e-06
 Reference value :  5.63842e-06
 Reference value :  5.75010e-06
 Reference value :  5.75011e-06
 Reference value :  5.75013e-06
 Reference value :  5.75017e-06
 Reference value :  5.75020e-06
 Reference value :  5.75020e-06
 Reference value :  5.75020e-06
 Reference value :  5.75021e-06
 Reference value :  5.75021e-06
 Reference value :  5.75022e-06
 Reference value :  5.75025e-06
 Reference value :  5.75029e-06
 Reference value :  5.75039e-06
 Reference value :  5.75058e-06
 Reference value :  5.75091e-06
 Reference value :  5.75141e-06
 Reference value :  5.75204e-06
 Reference value :  5.75261e-06
 Reference value :  5.75330e-06
 Reference value :  5.75414e-06
 Reference value :  5.75474e-06
 Reference value :  5.75544e-06
 Reference value :  5.75612e-06
 Reference value :  5.75685e-06
 Reference value :  5.75779e-06
 Reference value :  5.75884e-06
 Reference value :  5.76093e-06
 Reference value :  5.76685e-06
 Reference value :  5.77163e-06
 Reference value :  5.80028e-06
 Reference value :  5.83848e-06
 Reference value :  5.91489e-06
 Reference value :  6.00000e-06
 Reference value :  6.00001e-06
 Reference value :  6.00003e-06
 Reference value :  6.00007e-06
 Reference value :  6.00010e-06
 Reference value :  6.00010e-06
 Reference value :  6.00011e-06
 Reference value :  6.00013e-06
 Reference value :  6.00016e-06
 Reference value :  6.00023e-06
 Reference value :  6.00036e-06
 Reference value :  6.00054e-06
 Reference value :  6.00089e-06
 Reference value :  6.00139e-06
 Reference value :  6.00190e-06
 Reference value :  6.00243e-06
 Reference value :  6.00310e-06
 Reference value :  6.00375e-06
 Reference value :  6.00453e-06
 Reference value :  6.00519e-06
 Reference value :  6.00590e-06
 Reference value :  6.00668e-06
 Reference value :  6.00744e-06
 Reference value :  6.00942e-06
 Reference value :  6.01067e-06
 Reference value :  6.01277e-06
 Reference value :  6.01535e-06
 Reference value :  6.01727e-06
 Reference value :  6.01939e-06
 Reference value :  6.02101e-06
 Reference value :  6.02280e-06
 Reference value :  6.02649e-06
 Reference value :  6.02863e-06
 Reference value :  6.03105e-06
 Reference value :  6.03466e-06
 Reference value :  6.03948e-06
 Reference value :  6.04590e-06
 Reference value :  6.05305e-06
 Reference value :  6.06044e-06
 Reference value :  6.06582e-06
 Reference value :  6.07115e-06
 Reference value :  6.07725e-06
 Reference value :  6.08378e-06
 Reference value :  6.09232e-06
 Reference value :  6.10250e-06
 Reference value :  6.11552e-06
 Reference value :  6.12558e-06
 Reference value :  6.13602e-06
 Reference value :  6.14543e-06
 Reference value :  6.15509e-06
 Reference value :  6.16569e-06
 Reference value :  6.19143e-06
 Reference value :  6.23891e-06
 Reference value :  6.25011e-06
 Reference value :  6.25017e-06
 Reference value :  6.25020e-06
 Reference value :  6.25020e-06
 Reference value :  6.25021e-06
 Reference value :  6.25021e-06
 Reference value :  6.25022e-06
 Reference value :  6.25025e-06
 Reference value :  6.25029e-06
 Reference value :  6.25039e-06
 Reference value :  6.25058e-06
 Reference value :  6.25091e-06
 Reference value :  6.25140e-06
 Reference value :  6.25204e-06
 Reference value :  6.25261e-06
 Reference value :  6.25330e-06
 Reference value :  6.25414e-06
 Reference value :  6.25475e-06
 Reference value :  6.25545e-06
 Reference value :  6.25636e-06
 Reference value :  6.25725e-06
 Reference value :  6.25834e-06
 Reference value :  6.26046e-06
 Reference value :  6.26238e-06
 Reference value :  6.26572e-06
 Reference value :  6.26969e-06
 Reference value :  6.27761e-06
 Reference value :  6.29346e-06
 Reference value :  6.32517e-06
 Reference value :  6.38857e-06
 Reference value :  6.50000e-06
 Reference value :  6.50001e-06
 Reference value :  6.50003e-06
 Reference value :  6.50007e-06
 Reference value :  6.50010e-06
 Reference value :  6.50010e-06
 Reference value :  6.50011e-06
 Reference value :  6.50013e-06
 Reference value :  6.50016e-06
 Reference value :  6.50023e-06
 Reference value :  6.50037e-06
 Reference value :  6.50054e-06
 Reference value :  6.50090e-06
 Reference value :  6.50139e-06
 Reference value :  6.50191e-06
 Reference value :  6.50245e-06
 Reference value :  6.50311e-06
 Reference value :  6.50378e-06
 Reference value :  6.50453e-06
 Reference value :  6.50538e-06
 Reference value :  6.50621e-06
 Reference value :  6.50734e-06
 Reference value :  6.50873e-06
 Reference value :  6.50992e-06
 Reference value :  6.51115e-06
 Reference value :  6.51228e-06
 Reference value :  6.51360e-06
 Reference value :  6.51491e-06
 Reference value :  6.51642e-06
 Reference value :  6.51943e-06
 Reference value :  6.52545e-06
 Reference value :  6.53617e-06
 Reference value :  6.55761e-06
 Reference value :  6.60047e-06
 Reference value :  6.68621e-06
 Reference value :  6.75010e-06
 Reference value :  6.75011e-06
 Reference value :  6.75013e-06
 Reference value :  6.75017e-06
 Reference value :  6.75020e-06
 Reference value :  6.75020e-06
 Reference value :  6.75021e-06
 Reference value :  6.75021e-06
 Reference value :  6.75025e-06
 Reference value :  6.75029e-06
 Reference value :  6.75039e-06
 Reference value :  6.75058e-06
 Reference value :  6.75091e-06
 Reference value :  6.75141e-06
 Reference value :  6.75204e-06
 Reference value :  6.75262e-06
 Reference value :  6.75330e-06
 Reference value :  6.75414e-06
 Reference value :  6.75475e-06
 Reference value :  6.75544e-06
 Reference value :  6.75613e-06
 Reference value :  6.75686e-06
 Reference value :  6.75781e-06
 Reference value :  6.75887e-06
 Reference value :  6.76098e-06
 Reference value :  6.76315e-06
 Reference value :  6.76695e-06
 Reference value :  6.77180e-06
 Reference value :  6.78149e-06
 Reference value :  6.80088e-06
 Reference value :  6.83966e-06
 Reference value :  6.91723e-06
 Reference value :  7.00000e-06
 Reference value :  7.00001e-06
 Reference value :  7.00003e-06
 Reference value :  7.00007e-06
 Reference value :  7.00010e-06
 Reference value :  7.00010e-06
 Reference value :  7.00011e-06
 Reference value :  7.00013e-06
 Reference value :  7.00016e-06
 Reference value :  7.00023e-06
 Reference value :  7.00036e-06
 Reference value :  7.00054e-06
 Reference value :  7.00089e-06
 Reference value :  7.00139e-06
 Reference value :  7.00190e-06
 Reference value :  7.00243e-06
 Reference value :  7.00310e-06
 Reference value :  7.00375e-06
 Reference value :  7.00453e-06
 Reference value :  7.00519e-06
 Reference value :  7.00590e-06
 Reference value :  7.00670e-06
 Reference value :  7.00746e-06
 Reference value :  7.00829e-06
 Reference value :  7.00953e-06
 Reference value :  7.01070e-06
 Reference value :  7.01288e-06
 Reference value :  7.01546e-06
 Reference value :  7.01740e-06
 Reference value :  7.01954e-06
 Reference value :  7.02110e-06
 Reference value :  7.02277e-06
 Reference value :  7.02452e-06
 Reference value :  7.02640e-06
 Reference value :  7.02844e-06
 Reference value :  7.03088e-06
 Reference value :  7.03448e-06
 Reference value :  7.03868e-06
 Reference value :  7.04301e-06
 Reference value :  7.04991e-06
 Reference value :  7.05951e-06
 Reference value :  7.07104e-06
 Reference value :  7.07874e-06
 Reference value :  7.08682e-06
 Reference value :  7.09698e-06
 Reference value :  7.10770e-06
 Reference value :  7.12301e-06
 Reference value :  7.14191e-06
 Reference value :  7.16793e-06
 Reference value :  7.20692e-06
 Reference value :  7.25010e-06
 Reference value :  7.25011e-06
 Reference value :  7.25013e-06
 Reference value :  7.25017e-06
 Reference value :  7.25020e-06
 Reference value :  7.25020e-06
 Reference value :  7.25020e-06
 Reference value :  7.25021e-06
 Reference value :  7.25021e-06
 Reference value :  7.25022e-06
 Reference value :  7.25025e-06
 Reference value :  7.25029e-06
 Reference value :  7.25039e-06
 Reference value :  7.25057e-06
 Reference value :  7.25091e-06
 Reference value :  7.25140e-06
 Reference value :  7.25203e-06
 Reference value :  7.25261e-06
 Reference value :  7.25329e-06
 Reference value :  7.25413e-06
 Reference value :  7.25472e-06
 Reference value :  7.25540e-06
 Reference value :  7.25622e-06
 Reference value :  7.25725e-06
 Reference value :  7.25821e-06
 Reference value :  7.26013e-06
 Reference value :  7.26206e-06
 Reference value :  7.26518e-06
 Reference value :  7.26905e-06
 Reference value :  7.27677e-06
 Reference value :  7.29222e-06
 Reference value :  7.32312e-06
 Reference value :  7.35129e-06
 Reference value :  7.38119e-06
 Reference value :  7.40853e-06
 Reference value :  7.43509e-06
 Reference value :  7.46579e-06
 Reference value :  7.50000e-06
 Reference value :  7.50001e-06
 Reference value :  7.50003e-06
 Reference value :  7.50007e-06
 Reference value :  7.50010e-06
 Reference value :  7.50010e-06
 Reference value :  7.50011e-06
 Reference value :  7.50013e-06
 Reference value :  7.50016e-06
 Reference value :  7.50023e-06
 Reference value :  7.50037e-06
 Reference value :  7.50054e-06
 Reference value :  7.50090e-06
 Reference value :  7.50142e-06
 Reference value :  7.50194e-06
 Reference value :  7.50250e-06
 Reference value :  7.50316e-06
 Reference value :  7.50386e-06
 Reference value :  7.50459e-06
 Reference value :  7.50542e-06
 Reference value :  7.50628e-06
 Reference value :  7.50746e-06
 Reference value :  7.50889e-06
 Reference value :  7.51018e-06
 Reference value :  7.51148e-06
 Reference value :  7.51267e-06
 Reference value :  7.51402e-06
 Reference value :  7.51536e-06
 Reference value :  7.51691e-06
 Reference value :  7.52001e-06
 Reference value :  7.52530e-06
 Reference value :  7.53589e-06
 Reference value :  7.55707e-06
 Reference value :  7.59943e-06
 Reference value :  7.67993e-06
 Reference value :  7.75010e-06
 Reference value :  7.75011e-06
 Reference value :  7.75013e-06
 Reference value :  7.75017e-06
 Reference value :  7.75020e-06
 Reference value :  7.75020e-06
 Reference value :  7.75020e-06
 Reference value :  7.75021e-06
 Reference value :  7.75021e-06
 Reference value :  7.75022e-06
 Reference value :  7.75025e-06
 Reference value :  7.75029e-06
 Reference value :  7.75039e-06
 Reference value :  7.75058e-06
 Reference value :  7.75092e-06
 Reference value :  7.75141e-06
 Reference value :  7.75198e-06
 Reference value :  7.75258e-06
 Reference value :  7.75322e-06
 Reference value :  7.75406e-06
 Reference value :  7.75466e-06
 Reference value :  7.75537e-06
 Reference value :  7.75602e-06
 Reference value :  7.75674e-06
 Reference value :  7.75764e-06
 Reference value :  7.75865e-06
 Reference value :  7.76066e-06
 Reference value :  7.76277e-06
 Reference value :  7.76636e-06
 Reference value :  7.77080e-06
 Reference value :  7.77967e-06
 Reference value :  7.79740e-06
 Reference value :  7.83288e-06
 Reference value :  7.90383e-06
 Reference value :  8.00000e-06
 Reference value :  8.00001e-06
 Reference value :  8.00003e-06
 Reference value :  8.00007e-06
 Reference value :  8.00010e-06
 Reference value :  8.00010e-06
 Reference value :  8.00011e-06
 Reference value :  8.00013e-06
 Reference value :  8.00016e-06
 Reference value :  8.00023e-06
 Reference value :  8.00036e-06
 Reference value :  8.00054e-06
 Reference value :  8.00090e-06
 Reference value :  8.00141e-06
 Reference value :  8.00193e-06
 Reference value :  8.00248e-06
 Reference value :  8.00314e-06
 Reference value :  8.00383e-06
 Reference value :  8.00463e-06
 Reference value :  8.00531e-06
 Reference value :  8.00603e-06
 Reference value :  8.00682e-06
 Reference value :  8.00759e-06
 Reference value :  8.00843e-06
 Reference value :  8.00958e-06
 Reference value :  8.01089e-06
 Reference value :  8.01304e-06
 Reference value :  8.01567e-06
 Reference value :  8.01766e-06
 Reference value :  8.01986e-06
 Reference value :  8.02201e-06
 Reference value :  8.02449e-06
 Reference value :  8.02834e-06
 Reference value :  8.03343e-06
 Reference value :  8.04218e-06
 Reference value :  8.05631e-06
 Reference value :  8.08023e-06
 Reference value :  8.12247e-06
 Reference value :  8.19486e-06
 Reference value :  8.25010e-06
 Reference value :  8.25011e-06
 Reference value :  8.25013e-06
 Reference value :  8.25017e-06
 Reference value :  8.25020e-06
 Reference value :  8.25020e-06
 Reference value :  8.25020e-06
 Reference value :  8.25021e-06
 Reference value :  8.25021e-06
 Reference value :  8.25022e-06
 Reference value :  8.25025e-06
 Reference value :  8.25029e-06
 Reference value :  8.25039e-06
 Reference value :  8.25058e-06
 Reference value :  8.25096e-06
 Reference value :  8.25143e-06
 Reference value :  8.25198e-06
 Reference value :  8.25258e-06
 Reference value :  8.25322e-06
 Reference value :  8.25405e-06
 Reference value :  8.25495e-06
 Reference value :  8.25612e-06
 Reference value :  8.25752e-06
 Reference value :  8.25885e-06
 Reference value :  8.26110e-06
 Reference value :  8.26350e-06
 Reference value :  8.26727e-06
 Reference value :  8.27288e-06
 Reference value :  8.28409e-06
 Reference value :  8.30652e-06
 Reference value :  8.35137e-06
 Reference value :  8.44107e-06
 Reference value :  8.50000e-06
 Reference value :  8.50001e-06
 Reference value :  8.50003e-06
 Reference value :  8.50007e-06
 Reference value :  8.50010e-06
 Reference value :  8.50010e-06
 Reference value :  8.50011e-06
 Reference value :  8.50013e-06
 Reference value :  8.50016e-06
 Reference value :  8.50023e-06
 Reference value :  8.50036e-06
 Reference value :  8.50062e-06
 Reference value :  8.50102e-06
 Reference value :  8.50173e-06
 Reference value :  8.50238e-06
 Reference value :  8.50294e-06
 Reference value :  8.50362e-06
 Reference value :  8.50426e-06
 Reference value :  8.50502e-06
 Reference value :  8.50586e-06
 Reference value :  8.50680e-06
 Reference value :  8.50827e-06
 Reference value :  8.50963e-06
 Reference value :  8.51111e-06
 Reference value :  8.51253e-06
 Reference value :  8.51419e-06
 Reference value :  8.51634e-06
 Reference value :  8.51873e-06
 Reference value :  8.52351e-06
 Reference value :  8.52896e-06
 Reference value :  8.53279e-06
 Reference value :  8.53599e-06
 Reference value :  8.53877e-06
 Reference value :  8.54120e-06
 Reference value :  8.54315e-06
 Reference value :  8.54510e-06
 Reference value :  8.54694e-06
 Reference value :  8.54870e-06
 Reference value :  8.55122e-06
 Reference value :  8.55402e-06
 Reference value :  8.55677e-06
 Reference value :  8.56146e-06
 Reference value :  8.56633e-06
 Reference value :  8.57492e-06
 Reference value :  8.58334e-06
 Reference value :  8.59926e-06
 Reference value :  8.61518e-06
 Reference value :  8.63252e-06
 Reference value :  8.65114e-06
 Reference value :  8.67928e-06
 Reference value :  8.71796e-06
 Reference value :  8.75010e-06
 Reference value :  8.75011e-06
 Reference value :  8.75013e-06
 Reference value :  8.75017e-06
 Reference value :  8.75020e-06
 Reference value :  8.75020e-06
 Reference value :  8.75020e-06
 Reference value :  8.75021e-06
 Reference value :  8.75021e-06
 Reference value :  8.75022e-06
 Reference value :  8.75025e-06
 Reference value :  8.75029e-06
 Reference value :  8.75039e-06
 Reference value :  8.75058e-06
 Reference value :  8.75096e-06
 Reference value :  8.75143e-06
 Reference value :  8.75199e-06
 Reference value :  8.75258e-06
 Reference value :  8.75323e-06
 Reference value :  8.75405e-06
 Reference value :  8.75468e-06
 Reference value :  8.75541e-06
 Reference value :  8.75617e-06
 Reference value :  8.75697e-06
 Reference value :  8.75810e-06
 Reference value :  8.75961e-06
 Reference value :  8.76162e-06
 Reference value :  8.76426e-06
 Reference value :  8.76817e-06
 Reference value :  8.77576e-06
 Reference value :  8.79094e-06
 Reference value :  8.82075e-06
 Reference value :  8.88038e-06
 Reference value :  8.96313e-06
 Reference value :  9.00000e-06
No. of Data Rows : 1407
ngspice-44 done
