
Note: Compatibility modes selected: hs a


Circuit: ** sch_path: /home/audrey/cace/sar-adc-using-sky130-pdk/runs/run_2025-08-29_19-31-03/parameters/power/run_6/power_consumption.sch

option SCALE: Scale is set to 1e-06 for instance and model parameters
option SCALE: Scale is set to 1e-06 for instance and model parameters
option SCALE: Scale is set to 1e-06 for instance and model parameters
option SCALE: Scale is set to 1e-06 for instance and model parameters
Doing analysis at TEMP = 27.000000 and TNOM = 27.000000

Using KLU as Direct Linear Solver
Operating point simulation skipped by 'uic',
  now using transient initial conditions.
 Reference value :  5.00000e-12
 Reference value :  5.12974e-12
 Reference value :  5.38922e-12
 Reference value :  5.90818e-12
 Reference value :  6.94611e-12
 Reference value :  8.79282e-12
 Reference value :  1.17852e-11
 Reference value :  1.72091e-11
 Reference value :  2.78520e-11
 Reference value :  4.10510e-11
 Reference value :  6.54393e-11
 Reference value :  9.44004e-11
 Reference value :  1.45884e-10
 Reference value :  2.05927e-10
 Reference value :  3.26012e-10
 Reference value :  4.62477e-10
 Reference value :  5.00000e-10
 Reference value :  5.04600e-10
 Reference value :  5.13800e-10
 Reference value :  5.32201e-10
 Reference value :  5.69001e-10
 Reference value :  6.42603e-10
 Reference value :  7.89806e-10
 Reference value :  1.08421e-09
 Reference value :  1.67302e-09
 Reference value :  2.85065e-09
 Reference value :  5.08426e-09
 Reference value :  7.11908e-09
 Reference value :  1.11887e-08
 Reference value :  1.90381e-08
 Reference value :  2.74288e-08
 Reference value :  4.42101e-08
 Reference value :  6.32889e-08
 Reference value :  9.93499e-08
 Reference value :  1.63398e-07
 Reference value :  2.81136e-07
 Reference value :  4.64009e-07
 Reference value :  5.00000e-07
 Reference value :  5.26311e-07
 Reference value :  5.78933e-07
 Reference value :  6.84177e-07
 Reference value :  8.38842e-07
 Reference value :  9.98065e-07
 Reference value :  1.00050e-06
 Reference value :  1.00055e-06
 Reference value :  1.00065e-06
 Reference value :  1.00085e-06
 Reference value :  1.00100e-06
 Reference value :  1.00104e-06
 Reference value :  1.00111e-06
 Reference value :  1.00125e-06
 Reference value :  1.00153e-06
 Reference value :  1.00206e-06
 Reference value :  1.00269e-06
 Reference value :  1.00396e-06
 Reference value :  1.00650e-06
 Reference value :  1.01156e-06
 Reference value :  1.01967e-06
 Reference value :  1.03004e-06
 Reference value :  1.04477e-06
 Reference value :  1.06060e-06
 Reference value :  1.07743e-06
 Reference value :  1.10315e-06
 Reference value :  1.12917e-06
 Reference value :  1.15325e-06
 Reference value :  1.17170e-06
 Reference value :  1.18658e-06
 Reference value :  1.19898e-06
 Reference value :  1.20811e-06
 Reference value :  1.21690e-06
 Reference value :  1.22923e-06
 Reference value :  1.24178e-06
 Reference value :  1.25071e-06
 Reference value :  1.25936e-06
 Reference value :  1.26784e-06
 Reference value :  1.27517e-06
 Reference value :  1.28315e-06
 Reference value :  1.29378e-06
 Reference value :  1.30415e-06
 Reference value :  1.31998e-06
 Reference value :  1.33574e-06
 Reference value :  1.35237e-06
 Reference value :  1.36443e-06
 Reference value :  1.37618e-06
 Reference value :  1.39452e-06
 Reference value :  1.41111e-06
 Reference value :  1.42177e-06
 Reference value :  1.43267e-06
 Reference value :  1.44034e-06
 Reference value :  1.45080e-06
 Reference value :  1.47172e-06
 Reference value :  1.50088e-06
 Reference value :  1.55739e-06
 Reference value :  1.65735e-06
 Reference value :  1.65983e-06
 Reference value :  1.66479e-06
 Reference value :  1.67471e-06
 Reference value :  1.69455e-06
 Reference value :  1.73423e-06
 Reference value :  1.73736e-06
 Reference value :  1.74361e-06
 Reference value :  1.75611e-06
 Reference value :  1.78112e-06
 Reference value :  1.80496e-06
 Reference value :  1.82859e-06
 Reference value :  1.85744e-06
 Reference value :  1.88713e-06
 Reference value :  1.92667e-06
 Reference value :  1.96026e-06
 Reference value :  1.99573e-06
 Reference value :  2.00000e-06
 Reference value :  2.00005e-06
 Reference value :  2.00015e-06
 Reference value :  2.00035e-06
 Reference value :  2.00050e-06
 Reference value :  2.00051e-06
 Reference value :  2.00053e-06
 Reference value :  2.00056e-06
 Reference value :  2.00064e-06
 Reference value :  2.00078e-06
 Reference value :  2.00108e-06
 Reference value :  2.00167e-06
 Reference value :  2.00284e-06
 Reference value :  2.00411e-06
 Reference value :  2.00609e-06
 Reference value :  2.00920e-06
 Reference value :  2.01296e-06
 Reference value :  2.01751e-06
 Reference value :  2.02337e-06
 Reference value :  2.03509e-06
 Reference value :  2.05482e-06
 Reference value :  2.09427e-06
 Reference value :  2.16096e-06
 Reference value :  2.26649e-06
 Reference value :  2.40009e-06
 Reference value :  2.61667e-06
 Reference value :  2.95497e-06
 Reference value :  3.00050e-06
 Reference value :  3.00055e-06
 Reference value :  3.00065e-06
 Reference value :  3.00085e-06
 Reference value :  3.00100e-06
 Reference value :  3.00103e-06
 Reference value :  3.00109e-06
 Reference value :  3.00120e-06
 Reference value :  3.00143e-06
 Reference value :  3.00182e-06
 Reference value :  3.00218e-06
 Reference value :  3.00277e-06
 Reference value :  3.00354e-06
 Reference value :  3.00508e-06
 Reference value :  3.00816e-06
 Reference value :  3.01433e-06
 Reference value :  3.02665e-06
 Reference value :  3.05131e-06
 Reference value :  3.08155e-06
 Reference value :  3.12878e-06
 Reference value :  3.18245e-06
 Reference value :  3.26777e-06
 Reference value :  3.38015e-06
 Reference value :  3.60493e-06
 Reference value :  3.60944e-06
 Reference value :  3.61847e-06
 Reference value :  3.63652e-06
 Reference value :  3.67263e-06
 Reference value :  3.74484e-06
 Reference value :  3.83034e-06
 Reference value :  3.89953e-06
 Reference value :  3.97137e-06
 Reference value :  4.00000e-06
 Reference value :  4.00005e-06
 Reference value :  4.00015e-06
 Reference value :  4.00035e-06
 Reference value :  4.00050e-06
 Reference value :  4.00051e-06
 Reference value :  4.00053e-06
 Reference value :  4.00056e-06
 Reference value :  4.00063e-06
 Reference value :  4.00077e-06
 Reference value :  4.00106e-06
 Reference value :  4.00162e-06
 Reference value :  4.00275e-06
 Reference value :  4.00406e-06
 Reference value :  4.00604e-06
 Reference value :  4.00908e-06
 Reference value :  4.01284e-06
 Reference value :  4.01774e-06
 Reference value :  4.02329e-06
 Reference value :  4.03439e-06
 Reference value :  4.05658e-06
 Reference value :  4.10095e-06
 Reference value :  4.16483e-06
 Reference value :  4.22052e-06
 Reference value :  4.26178e-06
 Reference value :  4.30030e-06
 Reference value :  4.34001e-06
 Reference value :  4.39699e-06
 Reference value :  4.45902e-06
 Reference value :  4.54383e-06
 Reference value :  4.65228e-06
 Reference value :  4.79445e-06
 Reference value :  4.98961e-06
 Reference value :  5.00050e-06
 Reference value :  5.00055e-06
 Reference value :  5.00065e-06
 Reference value :  5.00085e-06
 Reference value :  5.00100e-06
 Reference value :  5.00103e-06
 Reference value :  5.00109e-06
 Reference value :  5.00121e-06
 Reference value :  5.00146e-06
 Reference value :  5.00180e-06
 Reference value :  5.00218e-06
 Reference value :  5.00276e-06
 Reference value :  5.00359e-06
 Reference value :  5.00525e-06
 Reference value :  5.00858e-06
 Reference value :  5.01524e-06
 Reference value :  5.02855e-06
 Reference value :  5.05305e-06
 Reference value :  5.08357e-06
 Reference value :  5.12913e-06
 Reference value :  5.17688e-06
 Reference value :  5.24961e-06
 Reference value :  5.38076e-06
 Reference value :  5.56793e-06
 Reference value :  5.57265e-06
 Reference value :  5.58210e-06
 Reference value :  5.60099e-06
 Reference value :  5.63877e-06
 Reference value :  5.71432e-06
 Reference value :  5.78569e-06
 Reference value :  5.83715e-06
 Reference value :  5.88553e-06
 Reference value :  5.94590e-06
 Reference value :  6.00000e-06
 Reference value :  6.00005e-06
 Reference value :  6.00015e-06
 Reference value :  6.00035e-06
 Reference value :  6.00050e-06
 Reference value :  6.00051e-06
 Reference value :  6.00054e-06
 Reference value :  6.00059e-06
 Reference value :  6.00069e-06
 Reference value :  6.00088e-06
 Reference value :  6.00128e-06
 Reference value :  6.00207e-06
 Reference value :  6.00365e-06
 Reference value :  6.00658e-06
 Reference value :  6.00951e-06
 Reference value :  6.01492e-06
 Reference value :  6.02082e-06
 Reference value :  6.03120e-06
 Reference value :  6.04188e-06
 Reference value :  6.05753e-06
 Reference value :  6.08884e-06
 Reference value :  6.14000e-06
 Reference value :  6.24234e-06
 Reference value :  6.40366e-06
 Reference value :  6.72632e-06
 Reference value :  7.00050e-06
 Reference value :  7.00055e-06
 Reference value :  7.00065e-06
 Reference value :  7.00085e-06
 Reference value :  7.00100e-06
 Reference value :  7.00103e-06
 Reference value :  7.00109e-06
 Reference value :  7.00121e-06
 Reference value :  7.00144e-06
 Reference value :  7.00175e-06
 Reference value :  7.00218e-06
 Reference value :  7.00277e-06
 Reference value :  7.00389e-06
 Reference value :  7.00614e-06
 Reference value :  7.01063e-06
 Reference value :  7.01961e-06
 Reference value :  7.03758e-06
 Reference value :  7.07351e-06
 Reference value :  7.14537e-06
 Reference value :  7.24946e-06
 Reference value :  7.39768e-06
 Reference value :  7.60831e-06
 Reference value :  7.83660e-06
 Reference value :  8.00000e-06
 Reference value :  8.00005e-06
 Reference value :  8.00015e-06
 Reference value :  8.00035e-06
 Reference value :  8.00050e-06
 Reference value :  8.00051e-06
 Reference value :  8.00054e-06
 Reference value :  8.00059e-06
 Reference value :  8.00069e-06
 Reference value :  8.00089e-06
 Reference value :  8.00129e-06
 Reference value :  8.00210e-06
 Reference value :  8.00370e-06
 Reference value :  8.00692e-06
 Reference value :  8.01016e-06
 Reference value :  8.01663e-06
 Reference value :  8.02323e-06
 Reference value :  8.03500e-06
 Reference value :  8.05091e-06
 Reference value :  8.06648e-06
 Reference value :  8.09761e-06
 Reference value :  8.15987e-06
 Reference value :  8.28440e-06
 Reference value :  8.49730e-06
 Reference value :  8.50166e-06
 Reference value :  8.51039e-06
 Reference value :  8.52783e-06
 Reference value :  8.56272e-06
 Reference value :  8.63250e-06
 Reference value :  8.77205e-06
 Reference value :  8.94726e-06
 Reference value :  9.00050e-06
 Reference value :  9.00055e-06
 Reference value :  9.00065e-06
 Reference value :  9.00085e-06
 Reference value :  9.00100e-06
 Reference value :  9.00103e-06
 Reference value :  9.00109e-06
 Reference value :  9.00121e-06
 Reference value :  9.00144e-06
 Reference value :  9.00175e-06
 Reference value :  9.00218e-06
 Reference value :  9.00277e-06
 Reference value :  9.00385e-06
 Reference value :  9.00601e-06
 Reference value :  9.01033e-06
 Reference value :  9.01898e-06
 Reference value :  9.03628e-06
 Reference value :  9.07087e-06
 Reference value :  9.14005e-06
 Reference value :  9.19619e-06
 Reference value :  9.25562e-06
 Reference value :  9.35632e-06
 Reference value :  9.49928e-06
 Reference value :  9.73528e-06
 Reference value :  9.99671e-06
 Reference value :  1.00000e-05
 Reference value :  1.00000e-05
 Reference value :  1.00001e-05
 Reference value :  1.00003e-05
 Reference value :  1.00005e-05
 Reference value :  1.00005e-05
 Reference value :  1.00005e-05
 Reference value :  1.00006e-05
 Reference value :  1.00007e-05
 Reference value :  1.00008e-05
 Reference value :  1.00012e-05
 Reference value :  1.00018e-05
 Reference value :  1.00032e-05
 Reference value :  1.00058e-05
 Reference value :  1.00087e-05
 Reference value :  1.00135e-05
 Reference value :  1.00191e-05
 Reference value :  1.00283e-05
 Reference value :  1.00379e-05
 Reference value :  1.00520e-05
 Reference value :  1.00802e-05
 Reference value :  1.01244e-05
 Reference value :  1.02127e-05
 Reference value :  1.03396e-05
 Reference value :  1.05343e-05
 Reference value :  1.07786e-05
 Reference value :  1.10005e-05
 Reference value :  1.10005e-05
 Reference value :  1.10006e-05
 Reference value :  1.10008e-05
 Reference value :  1.10010e-05
 Reference value :  1.10010e-05
 Reference value :  1.10011e-05
 Reference value :  1.10012e-05
 Reference value :  1.10014e-05
 Reference value :  1.10018e-05
 Reference value :  1.10022e-05
 Reference value :  1.10028e-05
 Reference value :  1.10039e-05
 Reference value :  1.10060e-05
 Reference value :  1.10104e-05
 Reference value :  1.10191e-05
 Reference value :  1.10364e-05
 Reference value :  1.10712e-05
 Reference value :  1.11311e-05
 Reference value :  1.12024e-05
 Reference value :  1.13121e-05
 Reference value :  1.14750e-05
 Reference value :  1.16859e-05
 Reference value :  1.20000e-05
 Reference value :  1.20000e-05
 Reference value :  1.20001e-05
 Reference value :  1.20003e-05
 Reference value :  1.20005e-05
 Reference value :  1.20005e-05
 Reference value :  1.20005e-05
 Reference value :  1.20006e-05
 Reference value :  1.20007e-05
 Reference value :  1.20009e-05
 Reference value :  1.20013e-05
 Reference value :  1.20021e-05
 Reference value :  1.20037e-05
 Reference value :  1.20067e-05
 Reference value :  1.20097e-05
 Reference value :  1.20153e-05
 Reference value :  1.20214e-05
 Reference value :  1.20319e-05
 Reference value :  1.20430e-05
 Reference value :  1.20589e-05
 Reference value :  1.20908e-05
 Reference value :  1.21425e-05
 Reference value :  1.22457e-05
 Reference value :  1.23882e-05
 Reference value :  1.25524e-05
 Reference value :  1.27708e-05
 Reference value :  1.30005e-05
 Reference value :  1.30006e-05
 Reference value :  1.30007e-05
 Reference value :  1.30009e-05
 Reference value :  1.30010e-05
 Reference value :  1.30010e-05
 Reference value :  1.30011e-05
 Reference value :  1.30012e-05
 Reference value :  1.30014e-05
 Reference value :  1.30018e-05
 Reference value :  1.30022e-05
 Reference value :  1.30028e-05
 Reference value :  1.30038e-05
 Reference value :  1.30060e-05
 Reference value :  1.30103e-05
 Reference value :  1.30188e-05
 Reference value :  1.30360e-05
 Reference value :  1.30703e-05
 Reference value :  1.31388e-05
 Reference value :  1.32042e-05
 Reference value :  1.32786e-05
 Reference value :  1.33274e-05
 Reference value :  1.33727e-05
 Reference value :  1.34320e-05
 Reference value :  1.34965e-05
 Reference value :  1.35797e-05
 Reference value :  1.36919e-05
 Reference value :  1.38497e-05
 Reference value :  1.40000e-05
 Reference value :  1.40000e-05
 Reference value :  1.40002e-05
 Reference value :  1.40004e-05
 Reference value :  1.40005e-05
 Reference value :  1.40005e-05
 Reference value :  1.40005e-05
 Reference value :  1.40006e-05
 Reference value :  1.40007e-05
 Reference value :  1.40009e-05
 Reference value :  1.40013e-05
 Reference value :  1.40021e-05
 Reference value :  1.40037e-05
 Reference value :  1.40069e-05
 Reference value :  1.40105e-05
 Reference value :  1.40167e-05
 Reference value :  1.40238e-05
 Reference value :  1.40350e-05
 Reference value :  1.40496e-05
 Reference value :  1.40655e-05
 Reference value :  1.40974e-05
 Reference value :  1.41611e-05
 Reference value :  1.42736e-05
 Reference value :  1.44374e-05
 Reference value :  1.46312e-05
 Reference value :  1.49409e-05
 Reference value :  1.50005e-05
 Reference value :  1.50005e-05
 Reference value :  1.50007e-05
 Reference value :  1.50009e-05
 Reference value :  1.50010e-05
 Reference value :  1.50010e-05
 Reference value :  1.50011e-05
 Reference value :  1.50012e-05
 Reference value :  1.50014e-05
 Reference value :  1.50018e-05
 Reference value :  1.50022e-05
 Reference value :  1.50028e-05
 Reference value :  1.50039e-05
 Reference value :  1.50061e-05
 Reference value :  1.50105e-05
 Reference value :  1.50193e-05
 Reference value :  1.50370e-05
 Reference value :  1.50723e-05
 Reference value :  1.51273e-05
 Reference value :  1.52011e-05
 Reference value :  1.52435e-05
 Reference value :  1.52865e-05
 Reference value :  1.53293e-05
 Reference value :  1.53770e-05
 Reference value :  1.54285e-05
 Reference value :  1.54820e-05
 Reference value :  1.55790e-05
 Reference value :  1.56664e-05
 Reference value :  1.58412e-05
 Reference value :  1.60000e-05
 Reference value :  1.60000e-05
 Reference value :  1.60001e-05
 Reference value :  1.60004e-05
 Reference value :  1.60005e-05
 Reference value :  1.60005e-05
 Reference value :  1.60005e-05
 Reference value :  1.60006e-05
 Reference value :  1.60007e-05
 Reference value :  1.60008e-05
 Reference value :  1.60012e-05
 Reference value :  1.60018e-05
 Reference value :  1.60032e-05
 Reference value :  1.60059e-05
 Reference value :  1.60113e-05
 Reference value :  1.60221e-05
 Reference value :  1.60438e-05
 Reference value :  1.60761e-05
 Reference value :  1.61101e-05
 Reference value :  1.61635e-05
 Reference value :  1.62181e-05
 Reference value :  1.62826e-05
 Reference value :  1.63922e-05
 Reference value :  1.64976e-05
 Reference value :  1.65962e-05
 Reference value :  1.67848e-05
 Reference value :  1.69619e-05
 Reference value :  1.70005e-05
 Reference value :  1.70006e-05
 Reference value :  1.70007e-05
 Reference value :  1.70009e-05
 Reference value :  1.70010e-05
 Reference value :  1.70010e-05
 Reference value :  1.70011e-05
 Reference value :  1.70012e-05
 Reference value :  1.70014e-05
 Reference value :  1.70018e-05
 Reference value :  1.70022e-05
 Reference value :  1.70028e-05
 Reference value :  1.70038e-05
 Reference value :  1.70060e-05
 Reference value :  1.70103e-05
 Reference value :  1.70188e-05
 Reference value :  1.70359e-05
 Reference value :  1.70702e-05
 Reference value :  1.71387e-05
 Reference value :  1.72445e-05
 Reference value :  1.73963e-05
 Reference value :  1.76171e-05
 Reference value :  1.79167e-05
 Reference value :  1.80000e-05
 Reference value :  1.80001e-05
 Reference value :  1.80002e-05
 Reference value :  1.80004e-05
 Reference value :  1.80005e-05
 Reference value :  1.80005e-05
 Reference value :  1.80005e-05
 Reference value :  1.80006e-05
 Reference value :  1.80007e-05
 Reference value :  1.80008e-05
 Reference value :  1.80012e-05
 Reference value :  1.80018e-05
 Reference value :  1.80032e-05
 Reference value :  1.80059e-05
 Reference value :  1.80113e-05
 Reference value :  1.80222e-05
 Reference value :  1.80438e-05
 Reference value :  1.80766e-05
 Reference value :  1.81108e-05
 Reference value :  1.81792e-05
 Reference value :  1.82968e-05
 Reference value :  1.84198e-05
 Reference value :  1.85608e-05
 Reference value :  1.86590e-05
 Reference value :  1.87516e-05
 Reference value :  1.88472e-05
 Reference value :  1.89370e-05
 Reference value :  1.90005e-05
 Reference value :  1.90006e-05
 Reference value :  1.90007e-05
 Reference value :  1.90009e-05
 Reference value :  1.90010e-05
 Reference value :  1.90010e-05
 Reference value :  1.90011e-05
 Reference value :  1.90012e-05
 Reference value :  1.90014e-05
 Reference value :  1.90018e-05
 Reference value :  1.90022e-05
 Reference value :  1.90028e-05
 Reference value :  1.90038e-05
 Reference value :  1.90060e-05
 Reference value :  1.90103e-05
 Reference value :  1.90189e-05
 Reference value :  1.90360e-05
 Reference value :  1.90703e-05
 Reference value :  1.91390e-05
 Reference value :  1.92508e-05
 Reference value :  1.94071e-05
 Reference value :  1.96579e-05
 Reference value :  2.00000e-05
 Reference value :  2.00001e-05
 Reference value :  2.00002e-05
 Reference value :  2.00004e-05
 Reference value :  2.00005e-05
 Reference value :  2.00005e-05
 Reference value :  2.00005e-05
 Reference value :  2.00006e-05
 Reference value :  2.00007e-05
 Reference value :  2.00008e-05
 Reference value :  2.00012e-05
 Reference value :  2.00018e-05
 Reference value :  2.00032e-05
 Reference value :  2.00059e-05
 Reference value :  2.00113e-05
 Reference value :  2.00222e-05
 Reference value :  2.00439e-05
 Reference value :  2.00765e-05
 Reference value :  2.01107e-05
 Reference value :  2.01791e-05
 Reference value :  2.02972e-05
 Reference value :  2.04214e-05
 Reference value :  2.05605e-05
 Reference value :  2.07980e-05
 Reference value :  2.10005e-05
 Reference value :  2.10005e-05
 Reference value :  2.10006e-05
 Reference value :  2.10008e-05
 Reference value :  2.10010e-05
 Reference value :  2.10010e-05
 Reference value :  2.10011e-05
 Reference value :  2.10012e-05
 Reference value :  2.10014e-05
 Reference value :  2.10018e-05
 Reference value :  2.10022e-05
 Reference value :  2.10028e-05
 Reference value :  2.10038e-05
 Reference value :  2.10060e-05
 Reference value :  2.10102e-05
 Reference value :  2.10187e-05
 Reference value :  2.10357e-05
 Reference value :  2.10697e-05
 Reference value :  2.11378e-05
 Reference value :  2.12503e-05
 Reference value :  2.14066e-05
 Reference value :  2.16585e-05
 Reference value :  2.20000e-05
 Reference value :  2.20000e-05
 Reference value :  2.20001e-05
 Reference value :  2.20004e-05
 Reference value :  2.20005e-05
 Reference value :  2.20005e-05
 Reference value :  2.20005e-05
 Reference value :  2.20006e-05
 Reference value :  2.20007e-05
 Reference value :  2.20008e-05
 Reference value :  2.20012e-05
 Reference value :  2.20018e-05
 Reference value :  2.20032e-05
 Reference value :  2.20059e-05
 Reference value :  2.20113e-05
 Reference value :  2.20222e-05
 Reference value :  2.20439e-05
 Reference value :  2.20766e-05
 Reference value :  2.21108e-05
 Reference value :  2.21792e-05
 Reference value :  2.22973e-05
 Reference value :  2.24214e-05
 Reference value :  2.25612e-05
 Reference value :  2.27972e-05
 Reference value :  2.30005e-05
 Reference value :  2.30005e-05
 Reference value :  2.30006e-05
 Reference value :  2.30008e-05
 Reference value :  2.30010e-05
 Reference value :  2.30010e-05
 Reference value :  2.30011e-05
 Reference value :  2.30012e-05
 Reference value :  2.30014e-05
 Reference value :  2.30018e-05
 Reference value :  2.30022e-05
 Reference value :  2.30028e-05
 Reference value :  2.30038e-05
 Reference value :  2.30060e-05
 Reference value :  2.30102e-05
 Reference value :  2.30187e-05
 Reference value :  2.30357e-05
 Reference value :  2.30697e-05
 Reference value :  2.31378e-05
 Reference value :  2.32514e-05
 Reference value :  2.34085e-05
 Reference value :  2.36627e-05
 Reference value :  2.40000e-05
 Reference value :  2.40001e-05
 Reference value :  2.40002e-05
 Reference value :  2.40004e-05
 Reference value :  2.40005e-05
 Reference value :  2.40005e-05
 Reference value :  2.40005e-05
 Reference value :  2.40006e-05
 Reference value :  2.40007e-05
 Reference value :  2.40008e-05
 Reference value :  2.40012e-05
 Reference value :  2.40018e-05
 Reference value :  2.40032e-05
 Reference value :  2.40059e-05
 Reference value :  2.40113e-05
 Reference value :  2.40222e-05
 Reference value :  2.40439e-05
 Reference value :  2.40766e-05
 Reference value :  2.41108e-05
 Reference value :  2.41792e-05
 Reference value :  2.42973e-05
 Reference value :  2.44214e-05
 Reference value :  2.45617e-05
 Reference value :  2.47967e-05
 Reference value :  2.50005e-05
 Reference value :  2.50005e-05
 Reference value :  2.50006e-05
 Reference value :  2.50008e-05
 Reference value :  2.50010e-05
 Reference value :  2.50010e-05
 Reference value :  2.50011e-05
 Reference value :  2.50012e-05
 Reference value :  2.50014e-05
 Reference value :  2.50018e-05
 Reference value :  2.50022e-05
 Reference value :  2.50028e-05
 Reference value :  2.50038e-05
 Reference value :  2.50060e-05
 Reference value :  2.50102e-05
 Reference value :  2.50187e-05
 Reference value :  2.50357e-05
 Reference value :  2.50698e-05
 Reference value :  2.51378e-05
 Reference value :  2.52522e-05
 Reference value :  2.54097e-05
 Reference value :  2.56655e-05
 Reference value :  2.60000e-05
 Reference value :  2.60001e-05
 Reference value :  2.60002e-05
 Reference value :  2.60004e-05
 Reference value :  2.60005e-05
 Reference value :  2.60005e-05
 Reference value :  2.60005e-05
 Reference value :  2.60006e-05
 Reference value :  2.60007e-05
 Reference value :  2.60008e-05
 Reference value :  2.60012e-05
 Reference value :  2.60018e-05
 Reference value :  2.60032e-05
 Reference value :  2.60059e-05
 Reference value :  2.60113e-05
 Reference value :  2.60222e-05
 Reference value :  2.60439e-05
 Reference value :  2.60767e-05
 Reference value :  2.61109e-05
 Reference value :  2.61793e-05
 Reference value :  2.62974e-05
 Reference value :  2.64214e-05
 Reference value :  2.65619e-05
 Reference value :  2.67965e-05
 Reference value :  2.70005e-05
 Reference value :  2.70006e-05
 Reference value :  2.70007e-05
 Reference value :  2.70009e-05
 Reference value :  2.70010e-05
 Reference value :  2.70010e-05
 Reference value :  2.70011e-05
 Reference value :  2.70012e-05
 Reference value :  2.70014e-05
 Reference value :  2.70018e-05
 Reference value :  2.70022e-05
 Reference value :  2.70028e-05
 Reference value :  2.70038e-05
 Reference value :  2.70060e-05
 Reference value :  2.70102e-05
 Reference value :  2.70187e-05
 Reference value :  2.70357e-05
 Reference value :  2.70698e-05
 Reference value :  2.71378e-05
 Reference value :  2.72527e-05
 Reference value :  2.74105e-05
 Reference value :  2.76672e-05
 Reference value :  2.80000e-05
 Reference value :  2.80000e-05
 Reference value :  2.80001e-05
 Reference value :  2.80004e-05
 Reference value :  2.80005e-05
 Reference value :  2.80005e-05
 Reference value :  2.80005e-05
 Reference value :  2.80006e-05
 Reference value :  2.80007e-05
 Reference value :  2.80008e-05
 Reference value :  2.80012e-05
 Reference value :  2.80018e-05
 Reference value :  2.80032e-05
 Reference value :  2.80059e-05
 Reference value :  2.80113e-05
 Reference value :  2.80222e-05
 Reference value :  2.80439e-05
 Reference value :  2.80772e-05
 Reference value :  2.81112e-05
 Reference value :  2.81793e-05
 Reference value :  2.82978e-05
 Reference value :  2.84217e-05
 Reference value :  2.85624e-05
 Reference value :  2.87969e-05
 Reference value :  2.90005e-05
 Reference value :  2.90006e-05
 Reference value :  2.90007e-05
 Reference value :  2.90009e-05
 Reference value :  2.90010e-05
 Reference value :  2.90010e-05
 Reference value :  2.90011e-05
 Reference value :  2.90012e-05
 Reference value :  2.90014e-05
 Reference value :  2.90018e-05
 Reference value :  2.90022e-05
 Reference value :  2.90028e-05
 Reference value :  2.90038e-05
 Reference value :  2.90060e-05
 Reference value :  2.90102e-05
 Reference value :  2.90187e-05
 Reference value :  2.90357e-05
 Reference value :  2.90698e-05
 Reference value :  2.91378e-05
 Reference value :  2.92530e-05
 Reference value :  2.94111e-05
 Reference value :  2.96684e-05
 Reference value :  3.00000e-05
 Reference value :  3.00001e-05
 Reference value :  3.00002e-05
 Reference value :  3.00004e-05
 Reference value :  3.00005e-05
 Reference value :  3.00005e-05
 Reference value :  3.00005e-05
 Reference value :  3.00006e-05
 Reference value :  3.00007e-05
 Reference value :  3.00008e-05
 Reference value :  3.00012e-05
 Reference value :  3.00018e-05
 Reference value :  3.00032e-05
 Reference value :  3.00059e-05
 Reference value :  3.00113e-05
 Reference value :  3.00222e-05
 Reference value :  3.00439e-05
 Reference value :  3.00776e-05
 Reference value :  3.01115e-05
 Reference value :  3.01793e-05
 Reference value :  3.02981e-05
 Reference value :  3.04221e-05
 Reference value :  3.05628e-05
 Reference value :  3.07974e-05
 Reference value :  3.10005e-05
 Reference value :  3.10005e-05
 Reference value :  3.10006e-05
 Reference value :  3.10008e-05
 Reference value :  3.10010e-05
 Reference value :  3.10010e-05
 Reference value :  3.10011e-05
 Reference value :  3.10012e-05
 Reference value :  3.10014e-05
 Reference value :  3.10018e-05
 Reference value :  3.10022e-05
 Reference value :  3.10028e-05
 Reference value :  3.10038e-05
 Reference value :  3.10060e-05
 Reference value :  3.10102e-05
 Reference value :  3.10187e-05
 Reference value :  3.10357e-05
 Reference value :  3.10698e-05
 Reference value :  3.11378e-05
 Reference value :  3.12532e-05
 Reference value :  3.14114e-05
 Reference value :  3.16692e-05
 Reference value :  3.20000e-05
 Reference value :  3.20000e-05
 Reference value :  3.20001e-05
 Reference value :  3.20003e-05
 Reference value :  3.20005e-05
 Reference value :  3.20005e-05
 Reference value :  3.20005e-05
 Reference value :  3.20006e-05
 Reference value :  3.20007e-05
 Reference value :  3.20008e-05
 Reference value :  3.20012e-05
 Reference value :  3.20018e-05
 Reference value :  3.20032e-05
 Reference value :  3.20059e-05
 Reference value :  3.20113e-05
 Reference value :  3.20222e-05
 Reference value :  3.20439e-05
 Reference value :  3.20779e-05
 Reference value :  3.21117e-05
 Reference value :  3.21793e-05
 Reference value :  3.22984e-05
 Reference value :  3.24223e-05
 Reference value :  3.25630e-05
 Reference value :  3.27977e-05
 Reference value :  3.30005e-05
 Reference value :  3.30006e-05
 Reference value :  3.30007e-05
 Reference value :  3.30009e-05
 Reference value :  3.30010e-05
 Reference value :  3.30010e-05
 Reference value :  3.30011e-05
 Reference value :  3.30012e-05
 Reference value :  3.30014e-05
 Reference value :  3.30018e-05
 Reference value :  3.30022e-05
 Reference value :  3.30028e-05
 Reference value :  3.30038e-05
 Reference value :  3.30060e-05
 Reference value :  3.30102e-05
 Reference value :  3.30187e-05
 Reference value :  3.30357e-05
 Reference value :  3.30698e-05
 Reference value :  3.31378e-05
 Reference value :  3.32533e-05
 Reference value :  3.34116e-05
 Reference value :  3.36697e-05
 Reference value :  3.40000e-05
No. of Data Rows : 919
ngspice-44 done
