
Note: Compatibility modes selected: hs a


Circuit: ** sch_path: /home/audrey/cace/sar-adc-using-sky130-pdk/runs/run_2025-09-09_19-46-46/parameters/power/run_2/power_consumption.sch

option SCALE: Scale is set to 1e-06 for instance and model parameters
option SCALE: Scale is set to 1e-06 for instance and model parameters
option SCALE: Scale is set to 1e-06 for instance and model parameters
option SCALE: Scale is set to 1e-06 for instance and model parameters
Doing analysis at TEMP = 27.000000 and TNOM = 27.000000

Using KLU as Direct Linear Solver
 Reference value :  0.00000e+00
 Reference value :  1.00000e-12
 Reference value :  2.00000e-12
 Reference value :  4.00000e-12
 Reference value :  8.00000e-12
 Reference value :  1.60000e-11
 Reference value :  3.20000e-11
 Reference value :  6.40000e-11
 Reference value :  1.00000e-10
 Reference value :  1.01503e-10
 Reference value :  1.04508e-10
 Reference value :  1.10520e-10
 Reference value :  1.22542e-10
 Reference value :  1.46587e-10
 Reference value :  1.94677e-10
 Reference value :  2.90857e-10
 Reference value :  4.51894e-10
 Reference value :  7.15637e-10
 Reference value :  1.18242e-09
 Reference value :  1.66402e-09
 Reference value :  2.37797e-09
 Reference value :  3.05096e-09
 Reference value :  3.78485e-09
 Reference value :  4.60327e-09
 Reference value :  5.49557e-09
 Reference value :  6.23686e-09
 Reference value :  7.07842e-09
 Reference value :  7.86074e-09
 Reference value :  8.71252e-09
 Reference value :  9.74255e-09
 Reference value :  1.08652e-08
 Reference value :  1.21889e-08
 Reference value :  1.35839e-08
 Reference value :  1.49287e-08
 Reference value :  1.64807e-08
 Reference value :  1.81340e-08
 Reference value :  1.94206e-08
 Reference value :  2.09047e-08
 Reference value :  2.23113e-08
 Reference value :  2.40275e-08
 Reference value :  2.59282e-08
 Reference value :  2.81010e-08
 Reference value :  3.01264e-08
 Reference value :  3.21948e-08
 Reference value :  3.32676e-08
 Reference value :  3.43279e-08
 Reference value :  3.55941e-08
 Reference value :  3.68615e-08
 Reference value :  3.90756e-08
 Reference value :  4.19294e-08
 Reference value :  4.64688e-08
 Reference value :  5.08352e-08
 Reference value :  5.63432e-08
 Reference value :  6.20203e-08
 Reference value :  7.22821e-08
 Reference value :  8.49738e-08
 Reference value :  1.02634e-07
 Reference value :  1.23237e-07
 Reference value :  1.54629e-07
 Reference value :  1.95512e-07
 Reference value :  2.50100e-07
 Reference value :  2.50110e-07
 Reference value :  2.50130e-07
 Reference value :  2.50170e-07
 Reference value :  2.50200e-07
 Reference value :  2.50201e-07
 Reference value :  2.50202e-07
 Reference value :  2.50204e-07
 Reference value :  2.50208e-07
 Reference value :  2.50216e-07
 Reference value :  2.50233e-07
 Reference value :  2.50267e-07
 Reference value :  2.50334e-07
 Reference value :  2.50416e-07
 Reference value :  2.50581e-07
 Reference value :  2.50770e-07
 Reference value :  2.51068e-07
 Reference value :  2.51520e-07
 Reference value :  2.51996e-07
 Reference value :  2.52686e-07
 Reference value :  2.53396e-07
 Reference value :  2.54318e-07
 Reference value :  2.55587e-07
 Reference value :  2.56474e-07
 Reference value :  2.57436e-07
 Reference value :  2.58531e-07
 Reference value :  2.59832e-07
 Reference value :  2.61149e-07
 Reference value :  2.63206e-07
 Reference value :  2.65791e-07
 Reference value :  2.69703e-07
 Reference value :  2.74822e-07
 Reference value :  2.85059e-07
 Reference value :  3.04681e-07
 Reference value :  3.37465e-07
 Reference value :  4.03032e-07
 Reference value :  5.00000e-07
 Reference value :  5.00010e-07
 Reference value :  5.00030e-07
 Reference value :  5.00070e-07
 Reference value :  5.00100e-07
 Reference value :  5.00104e-07
 Reference value :  5.00113e-07
 Reference value :  5.00130e-07
 Reference value :  5.00164e-07
 Reference value :  5.00232e-07
 Reference value :  5.00368e-07
 Reference value :  5.00559e-07
 Reference value :  5.00941e-07
 Reference value :  5.01536e-07
 Reference value :  5.02162e-07
 Reference value :  5.02854e-07
 Reference value :  5.03675e-07
 Reference value :  5.04427e-07
 Reference value :  5.05339e-07
 Reference value :  5.06299e-07
 Reference value :  5.07288e-07
 Reference value :  5.08686e-07
 Reference value :  5.10108e-07
 Reference value :  5.12667e-07
 Reference value :  5.15599e-07
 Reference value :  5.17749e-07
 Reference value :  5.20199e-07
 Reference value :  5.22967e-07
 Reference value :  5.25460e-07
 Reference value :  5.28829e-07
 Reference value :  5.33562e-07
 Reference value :  5.40187e-07
 Reference value :  5.49758e-07
 Reference value :  5.68699e-07
 Reference value :  5.95980e-07
 Reference value :  6.45906e-07
 Reference value :  7.44479e-07
 Reference value :  7.50100e-07
 Reference value :  7.50110e-07
 Reference value :  7.50130e-07
 Reference value :  7.50170e-07
 Reference value :  7.50200e-07
 Reference value :  7.50201e-07
 Reference value :  7.50202e-07
 Reference value :  7.50205e-07
 Reference value :  7.50212e-07
 Reference value :  7.50224e-07
 Reference value :  7.50249e-07
 Reference value :  7.50298e-07
 Reference value :  7.50396e-07
 Reference value :  7.50594e-07
 Reference value :  7.50984e-07
 Reference value :  7.51569e-07
 Reference value :  7.52239e-07
 Reference value :  7.52985e-07
 Reference value :  7.53829e-07
 Reference value :  7.54923e-07
 Reference value :  7.55816e-07
 Reference value :  7.56877e-07
 Reference value :  7.57787e-07
 Reference value :  7.58771e-07
 Reference value :  7.59882e-07
 Reference value :  7.61130e-07
 Reference value :  7.63627e-07
 Reference value :  7.66443e-07
 Reference value :  7.70871e-07
 Reference value :  7.76837e-07
 Reference value :  7.88769e-07
 Reference value :  8.12633e-07
 Reference value :  8.60084e-07
 Reference value :  9.54985e-07
 Reference value :  1.00000e-06
 Reference value :  1.00001e-06
 Reference value :  1.00003e-06
 Reference value :  1.00007e-06
 Reference value :  1.00010e-06
 Reference value :  1.00010e-06
 Reference value :  1.00011e-06
 Reference value :  1.00013e-06
 Reference value :  1.00016e-06
 Reference value :  1.00023e-06
 Reference value :  1.00037e-06
 Reference value :  1.00056e-06
 Reference value :  1.00094e-06
 Reference value :  1.00153e-06
 Reference value :  1.00216e-06
 Reference value :  1.00285e-06
 Reference value :  1.00357e-06
 Reference value :  1.00432e-06
 Reference value :  1.00516e-06
 Reference value :  1.00607e-06
 Reference value :  1.00702e-06
 Reference value :  1.00795e-06
 Reference value :  1.00904e-06
 Reference value :  1.01001e-06
 Reference value :  1.01108e-06
 Reference value :  1.01259e-06
 Reference value :  1.01427e-06
 Reference value :  1.01717e-06
 Reference value :  1.02013e-06
 Reference value :  1.02249e-06
 Reference value :  1.02463e-06
 Reference value :  1.02615e-06
 Reference value :  1.02771e-06
 Reference value :  1.02918e-06
 Reference value :  1.03075e-06
 Reference value :  1.03250e-06
 Reference value :  1.03521e-06
 Reference value :  1.03769e-06
 Reference value :  1.04250e-06
 Reference value :  1.04925e-06
 Reference value :  1.05948e-06
 Reference value :  1.07681e-06
 Reference value :  1.10502e-06
 Reference value :  1.14441e-06
 Reference value :  1.22320e-06
 Reference value :  1.25010e-06
 Reference value :  1.25011e-06
 Reference value :  1.25013e-06
 Reference value :  1.25017e-06
 Reference value :  1.25020e-06
 Reference value :  1.25020e-06
 Reference value :  1.25020e-06
 Reference value :  1.25021e-06
 Reference value :  1.25021e-06
 Reference value :  1.25022e-06
 Reference value :  1.25025e-06
 Reference value :  1.25030e-06
 Reference value :  1.25040e-06
 Reference value :  1.25059e-06
 Reference value :  1.25094e-06
 Reference value :  1.25156e-06
 Reference value :  1.25219e-06
 Reference value :  1.25296e-06
 Reference value :  1.25378e-06
 Reference value :  1.25486e-06
 Reference value :  1.25579e-06
 Reference value :  1.25687e-06
 Reference value :  1.25800e-06
 Reference value :  1.25906e-06
 Reference value :  1.26088e-06
 Reference value :  1.26261e-06
 Reference value :  1.26545e-06
 Reference value :  1.26899e-06
 Reference value :  1.27436e-06
 Reference value :  1.28510e-06
 Reference value :  1.30372e-06
 Reference value :  1.33787e-06
 Reference value :  1.40616e-06
 Reference value :  1.50000e-06
 Reference value :  1.50001e-06
 Reference value :  1.50003e-06
 Reference value :  1.50007e-06
 Reference value :  1.50010e-06
 Reference value :  1.50010e-06
 Reference value :  1.50011e-06
 Reference value :  1.50013e-06
 Reference value :  1.50016e-06
 Reference value :  1.50023e-06
 Reference value :  1.50037e-06
 Reference value :  1.50056e-06
 Reference value :  1.50093e-06
 Reference value :  1.50161e-06
 Reference value :  1.50223e-06
 Reference value :  1.50291e-06
 Reference value :  1.50362e-06
 Reference value :  1.50438e-06
 Reference value :  1.50523e-06
 Reference value :  1.50615e-06
 Reference value :  1.50719e-06
 Reference value :  1.50853e-06
 Reference value :  1.50991e-06
 Reference value :  1.51148e-06
 Reference value :  1.51304e-06
 Reference value :  1.51463e-06
 Reference value :  1.51657e-06
 Reference value :  1.51844e-06
 Reference value :  1.52078e-06
 Reference value :  1.52293e-06
 Reference value :  1.52721e-06
 Reference value :  1.53579e-06
 Reference value :  1.54892e-06
 Reference value :  1.57518e-06
 Reference value :  1.62769e-06
 Reference value :  1.73272e-06
 Reference value :  1.75010e-06
 Reference value :  1.75011e-06
 Reference value :  1.75013e-06
 Reference value :  1.75017e-06
 Reference value :  1.75020e-06
 Reference value :  1.75020e-06
 Reference value :  1.75020e-06
 Reference value :  1.75021e-06
 Reference value :  1.75021e-06
 Reference value :  1.75022e-06
 Reference value :  1.75025e-06
 Reference value :  1.75030e-06
 Reference value :  1.75039e-06
 Reference value :  1.75059e-06
 Reference value :  1.75093e-06
 Reference value :  1.75155e-06
 Reference value :  1.75216e-06
 Reference value :  1.75295e-06
 Reference value :  1.75376e-06
 Reference value :  1.75483e-06
 Reference value :  1.75576e-06
 Reference value :  1.75682e-06
 Reference value :  1.75776e-06
 Reference value :  1.75875e-06
 Reference value :  1.75989e-06
 Reference value :  1.76117e-06
 Reference value :  1.76372e-06
 Reference value :  1.76652e-06
 Reference value :  1.77104e-06
 Reference value :  1.77711e-06
 Reference value :  1.78924e-06
 Reference value :  1.81350e-06
 Reference value :  1.86202e-06
 Reference value :  1.95906e-06
 Reference value :  2.00000e-06
 Reference value :  2.00001e-06
 Reference value :  2.00003e-06
 Reference value :  2.00007e-06
 Reference value :  2.00010e-06
 Reference value :  2.00010e-06
 Reference value :  2.00011e-06
 Reference value :  2.00013e-06
 Reference value :  2.00016e-06
 Reference value :  2.00023e-06
 Reference value :  2.00037e-06
 Reference value :  2.00055e-06
 Reference value :  2.00092e-06
 Reference value :  2.00160e-06
 Reference value :  2.00223e-06
 Reference value :  2.00291e-06
 Reference value :  2.00363e-06
 Reference value :  2.00439e-06
 Reference value :  2.00523e-06
 Reference value :  2.00615e-06
 Reference value :  2.00717e-06
 Reference value :  2.00818e-06
 Reference value :  2.00924e-06
 Reference value :  2.01025e-06
 Reference value :  2.01134e-06
 Reference value :  2.01279e-06
 Reference value :  2.01462e-06
 Reference value :  2.01758e-06
 Reference value :  2.02043e-06
 Reference value :  2.02282e-06
 Reference value :  2.02486e-06
 Reference value :  2.02691e-06
 Reference value :  2.02892e-06
 Reference value :  2.03099e-06
 Reference value :  2.03335e-06
 Reference value :  2.03579e-06
 Reference value :  2.03877e-06
 Reference value :  2.04312e-06
 Reference value :  2.04930e-06
 Reference value :  2.05920e-06
 Reference value :  2.07507e-06
 Reference value :  2.10103e-06
 Reference value :  2.14708e-06
 Reference value :  2.20635e-06
 Reference value :  2.25010e-06
 Reference value :  2.25011e-06
 Reference value :  2.25013e-06
 Reference value :  2.25017e-06
 Reference value :  2.25020e-06
 Reference value :  2.25020e-06
 Reference value :  2.25020e-06
 Reference value :  2.25021e-06
 Reference value :  2.25021e-06
 Reference value :  2.25022e-06
 Reference value :  2.25025e-06
 Reference value :  2.25030e-06
 Reference value :  2.25039e-06
 Reference value :  2.25059e-06
 Reference value :  2.25092e-06
 Reference value :  2.25154e-06
 Reference value :  2.25216e-06
 Reference value :  2.25295e-06
 Reference value :  2.25375e-06
 Reference value :  2.25483e-06
 Reference value :  2.25579e-06
 Reference value :  2.25689e-06
 Reference value :  2.25799e-06
 Reference value :  2.25907e-06
 Reference value :  2.26086e-06
 Reference value :  2.26262e-06
 Reference value :  2.26544e-06
 Reference value :  2.26900e-06
 Reference value :  2.27435e-06
 Reference value :  2.28503e-06
 Reference value :  2.30369e-06
 Reference value :  2.33774e-06
 Reference value :  2.40583e-06
 Reference value :  2.49486e-06
 Reference value :  2.50000e-06
 Reference value :  2.50001e-06
 Reference value :  2.50003e-06
 Reference value :  2.50007e-06
 Reference value :  2.50010e-06
 Reference value :  2.50010e-06
 Reference value :  2.50011e-06
 Reference value :  2.50013e-06
 Reference value :  2.50016e-06
 Reference value :  2.50023e-06
 Reference value :  2.50037e-06
 Reference value :  2.50055e-06
 Reference value :  2.50092e-06
 Reference value :  2.50160e-06
 Reference value :  2.50223e-06
 Reference value :  2.50291e-06
 Reference value :  2.50363e-06
 Reference value :  2.50438e-06
 Reference value :  2.50524e-06
 Reference value :  2.50616e-06
 Reference value :  2.50719e-06
 Reference value :  2.50852e-06
 Reference value :  2.50991e-06
 Reference value :  2.51147e-06
 Reference value :  2.51303e-06
 Reference value :  2.51462e-06
 Reference value :  2.51655e-06
 Reference value :  2.51830e-06
 Reference value :  2.52027e-06
 Reference value :  2.52239e-06
 Reference value :  2.52664e-06
 Reference value :  2.53481e-06
 Reference value :  2.54850e-06
 Reference value :  2.57587e-06
 Reference value :  2.63061e-06
 Reference value :  2.74010e-06
 Reference value :  2.75010e-06
 Reference value :  2.75011e-06
 Reference value :  2.75013e-06
 Reference value :  2.75017e-06
 Reference value :  2.75020e-06
 Reference value :  2.75020e-06
 Reference value :  2.75020e-06
 Reference value :  2.75021e-06
 Reference value :  2.75021e-06
 Reference value :  2.75022e-06
 Reference value :  2.75025e-06
 Reference value :  2.75030e-06
 Reference value :  2.75039e-06
 Reference value :  2.75059e-06
 Reference value :  2.75093e-06
 Reference value :  2.75154e-06
 Reference value :  2.75216e-06
 Reference value :  2.75294e-06
 Reference value :  2.75375e-06
 Reference value :  2.75482e-06
 Reference value :  2.75575e-06
 Reference value :  2.75682e-06
 Reference value :  2.75776e-06
 Reference value :  2.75876e-06
 Reference value :  2.75989e-06
 Reference value :  2.76116e-06
 Reference value :  2.76371e-06
 Reference value :  2.76651e-06
 Reference value :  2.77102e-06
 Reference value :  2.77709e-06
 Reference value :  2.78923e-06
 Reference value :  2.81351e-06
 Reference value :  2.86206e-06
 Reference value :  2.95916e-06
 Reference value :  3.00000e-06
 Reference value :  3.00001e-06
 Reference value :  3.00003e-06
 Reference value :  3.00007e-06
 Reference value :  3.00010e-06
 Reference value :  3.00010e-06
 Reference value :  3.00011e-06
 Reference value :  3.00013e-06
 Reference value :  3.00016e-06
 Reference value :  3.00023e-06
 Reference value :  3.00037e-06
 Reference value :  3.00055e-06
 Reference value :  3.00092e-06
 Reference value :  3.00160e-06
 Reference value :  3.00223e-06
 Reference value :  3.00291e-06
 Reference value :  3.00363e-06
 Reference value :  3.00438e-06
 Reference value :  3.00523e-06
 Reference value :  3.00615e-06
 Reference value :  3.00710e-06
 Reference value :  3.00811e-06
 Reference value :  3.00918e-06
 Reference value :  3.01020e-06
 Reference value :  3.01129e-06
 Reference value :  3.01274e-06
 Reference value :  3.01454e-06
 Reference value :  3.01749e-06
 Reference value :  3.02028e-06
 Reference value :  3.02266e-06
 Reference value :  3.02457e-06
 Reference value :  3.02637e-06
 Reference value :  3.02839e-06
 Reference value :  3.03026e-06
 Reference value :  3.03254e-06
 Reference value :  3.03488e-06
 Reference value :  3.03824e-06
 Reference value :  3.04227e-06
 Reference value :  3.05001e-06
 Reference value :  3.06209e-06
 Reference value :  3.08237e-06
 Reference value :  3.10090e-06
 Reference value :  3.12221e-06
 Reference value :  3.13640e-06
 Reference value :  3.14976e-06
 Reference value :  3.15896e-06
 Reference value :  3.17081e-06
 Reference value :  3.18224e-06
 Reference value :  3.19513e-06
 Reference value :  3.22086e-06
 Reference value :  3.25010e-06
 Reference value :  3.25011e-06
 Reference value :  3.25013e-06
 Reference value :  3.25017e-06
 Reference value :  3.25020e-06
 Reference value :  3.25020e-06
 Reference value :  3.25020e-06
 Reference value :  3.25021e-06
 Reference value :  3.25021e-06
 Reference value :  3.25022e-06
 Reference value :  3.25025e-06
 Reference value :  3.25030e-06
 Reference value :  3.25039e-06
 Reference value :  3.25059e-06
 Reference value :  3.25092e-06
 Reference value :  3.25154e-06
 Reference value :  3.25216e-06
 Reference value :  3.25294e-06
 Reference value :  3.25375e-06
 Reference value :  3.25482e-06
 Reference value :  3.25570e-06
 Reference value :  3.25673e-06
 Reference value :  3.25771e-06
 Reference value :  3.25873e-06
 Reference value :  3.26045e-06
 Reference value :  3.26204e-06
 Reference value :  3.26490e-06
 Reference value :  3.26801e-06
 Reference value :  3.27306e-06
 Reference value :  3.28235e-06
 Reference value :  3.29422e-06
 Reference value :  3.30745e-06
 Reference value :  3.31657e-06
 Reference value :  3.32513e-06
 Reference value :  3.33205e-06
 Reference value :  3.33951e-06
 Reference value :  3.35243e-06
 Reference value :  3.36625e-06
 Reference value :  3.39062e-06
 Reference value :  3.42507e-06
 Reference value :  3.47985e-06
 Reference value :  3.50000e-06
 Reference value :  3.50001e-06
 Reference value :  3.50003e-06
 Reference value :  3.50007e-06
 Reference value :  3.50010e-06
 Reference value :  3.50010e-06
 Reference value :  3.50011e-06
 Reference value :  3.50013e-06
 Reference value :  3.50016e-06
 Reference value :  3.50023e-06
 Reference value :  3.50037e-06
 Reference value :  3.50056e-06
 Reference value :  3.50093e-06
 Reference value :  3.50161e-06
 Reference value :  3.50223e-06
 Reference value :  3.50291e-06
 Reference value :  3.50362e-06
 Reference value :  3.50438e-06
 Reference value :  3.50523e-06
 Reference value :  3.50615e-06
 Reference value :  3.50711e-06
 Reference value :  3.50846e-06
 Reference value :  3.50978e-06
 Reference value :  3.51141e-06
 Reference value :  3.51289e-06
 Reference value :  3.51444e-06
 Reference value :  3.51595e-06
 Reference value :  3.51766e-06
 Reference value :  3.51943e-06
 Reference value :  3.52135e-06
 Reference value :  3.52519e-06
 Reference value :  3.53280e-06
 Reference value :  3.54570e-06
 Reference value :  3.57150e-06
 Reference value :  3.62311e-06
 Reference value :  3.72632e-06
 Reference value :  3.75010e-06
 Reference value :  3.75011e-06
 Reference value :  3.75013e-06
 Reference value :  3.75017e-06
 Reference value :  3.75020e-06
 Reference value :  3.75020e-06
 Reference value :  3.75020e-06
 Reference value :  3.75021e-06
 Reference value :  3.75021e-06
 Reference value :  3.75022e-06
 Reference value :  3.75025e-06
 Reference value :  3.75030e-06
 Reference value :  3.75039e-06
 Reference value :  3.75059e-06
 Reference value :  3.75093e-06
 Reference value :  3.75154e-06
 Reference value :  3.75216e-06
 Reference value :  3.75294e-06
 Reference value :  3.75375e-06
 Reference value :  3.75482e-06
 Reference value :  3.75574e-06
 Reference value :  3.75681e-06
 Reference value :  3.75775e-06
 Reference value :  3.75874e-06
 Reference value :  3.75987e-06
 Reference value :  3.76114e-06
 Reference value :  3.76367e-06
 Reference value :  3.76645e-06
 Reference value :  3.77094e-06
 Reference value :  3.77692e-06
 Reference value :  3.78888e-06
 Reference value :  3.81280e-06
 Reference value :  3.86064e-06
 Reference value :  3.95632e-06
 Reference value :  4.00000e-06
 Reference value :  4.00001e-06
 Reference value :  4.00003e-06
 Reference value :  4.00007e-06
 Reference value :  4.00010e-06
 Reference value :  4.00010e-06
 Reference value :  4.00011e-06
 Reference value :  4.00013e-06
 Reference value :  4.00016e-06
 Reference value :  4.00023e-06
 Reference value :  4.00037e-06
 Reference value :  4.00055e-06
 Reference value :  4.00092e-06
 Reference value :  4.00160e-06
 Reference value :  4.00223e-06
 Reference value :  4.00291e-06
 Reference value :  4.00363e-06
 Reference value :  4.00438e-06
 Reference value :  4.00523e-06
 Reference value :  4.00615e-06
 Reference value :  4.00717e-06
 Reference value :  4.00818e-06
 Reference value :  4.00913e-06
 Reference value :  4.01013e-06
 Reference value :  4.01118e-06
 Reference value :  4.01254e-06
 Reference value :  4.01442e-06
 Reference value :  4.01728e-06
 Reference value :  4.02018e-06
 Reference value :  4.02255e-06
 Reference value :  4.02447e-06
 Reference value :  4.02627e-06
 Reference value :  4.02828e-06
 Reference value :  4.03017e-06
 Reference value :  4.03234e-06
 Reference value :  4.03466e-06
 Reference value :  4.03803e-06
 Reference value :  4.04186e-06
 Reference value :  4.04840e-06
 Reference value :  4.05513e-06
 Reference value :  4.06024e-06
 Reference value :  4.06484e-06
 Reference value :  4.06977e-06
 Reference value :  4.07531e-06
 Reference value :  4.08455e-06
 Reference value :  4.09194e-06
 Reference value :  4.09991e-06
 Reference value :  4.10955e-06
 Reference value :  4.12441e-06
 Reference value :  4.14439e-06
 Reference value :  4.16576e-06
 Reference value :  4.19361e-06
 Reference value :  4.22717e-06
 Reference value :  4.25010e-06
 Reference value :  4.25011e-06
 Reference value :  4.25013e-06
 Reference value :  4.25017e-06
 Reference value :  4.25020e-06
 Reference value :  4.25020e-06
 Reference value :  4.25020e-06
 Reference value :  4.25021e-06
 Reference value :  4.25021e-06
 Reference value :  4.25022e-06
 Reference value :  4.25025e-06
 Reference value :  4.25030e-06
 Reference value :  4.25040e-06
 Reference value :  4.25059e-06
 Reference value :  4.25094e-06
 Reference value :  4.25154e-06
 Reference value :  4.25218e-06
 Reference value :  4.25294e-06
 Reference value :  4.25376e-06
 Reference value :  4.25483e-06
 Reference value :  4.25570e-06
 Reference value :  4.25672e-06
 Reference value :  4.25769e-06
 Reference value :  4.25870e-06
 Reference value :  4.26041e-06
 Reference value :  4.26200e-06
 Reference value :  4.26485e-06
 Reference value :  4.26792e-06
 Reference value :  4.27297e-06
 Reference value :  4.28164e-06
 Reference value :  4.29897e-06
 Reference value :  4.33362e-06
 Reference value :  4.40293e-06
 Reference value :  4.50000e-06
 Reference value :  4.50001e-06
 Reference value :  4.50003e-06
 Reference value :  4.50007e-06
 Reference value :  4.50010e-06
 Reference value :  4.50010e-06
 Reference value :  4.50011e-06
 Reference value :  4.50013e-06
 Reference value :  4.50016e-06
 Reference value :  4.50023e-06
 Reference value :  4.50037e-06
 Reference value :  4.50056e-06
 Reference value :  4.50092e-06
 Reference value :  4.50161e-06
 Reference value :  4.50223e-06
 Reference value :  4.50286e-06
 Reference value :  4.50357e-06
 Reference value :  4.50431e-06
 Reference value :  4.50516e-06
 Reference value :  4.50606e-06
 Reference value :  4.50702e-06
 Reference value :  4.50838e-06
 Reference value :  4.50964e-06
 Reference value :  4.51115e-06
 Reference value :  4.51248e-06
 Reference value :  4.51388e-06
 Reference value :  4.51531e-06
 Reference value :  4.51699e-06
 Reference value :  4.51879e-06
 Reference value :  4.52066e-06
 Reference value :  4.52439e-06
 Reference value :  4.53187e-06
 Reference value :  4.54489e-06
 Reference value :  4.57094e-06
 Reference value :  4.62302e-06
 Reference value :  4.72720e-06
 Reference value :  4.75010e-06
 Reference value :  4.75011e-06
 Reference value :  4.75013e-06
 Reference value :  4.75017e-06
 Reference value :  4.75020e-06
 Reference value :  4.75020e-06
 Reference value :  4.75020e-06
 Reference value :  4.75021e-06
 Reference value :  4.75021e-06
 Reference value :  4.75022e-06
 Reference value :  4.75025e-06
 Reference value :  4.75030e-06
 Reference value :  4.75039e-06
 Reference value :  4.75059e-06
 Reference value :  4.75092e-06
 Reference value :  4.75154e-06
 Reference value :  4.75216e-06
 Reference value :  4.75294e-06
 Reference value :  4.75375e-06
 Reference value :  4.75481e-06
 Reference value :  4.75573e-06
 Reference value :  4.75680e-06
 Reference value :  4.75774e-06
 Reference value :  4.75874e-06
 Reference value :  4.75987e-06
 Reference value :  4.76114e-06
 Reference value :  4.76241e-06
 Reference value :  4.76421e-06
 Reference value :  4.76638e-06
 Reference value :  4.76914e-06
 Reference value :  4.77275e-06
 Reference value :  4.77786e-06
 Reference value :  4.78809e-06
 Reference value :  4.80445e-06
 Reference value :  4.83716e-06
 Reference value :  4.90260e-06
 Reference value :  5.00000e-06
 Reference value :  5.00001e-06
 Reference value :  5.00003e-06
 Reference value :  5.00007e-06
 Reference value :  5.00010e-06
 Reference value :  5.00010e-06
 Reference value :  5.00011e-06
 Reference value :  5.00013e-06
 Reference value :  5.00016e-06
 Reference value :  5.00023e-06
 Reference value :  5.00037e-06
 Reference value :  5.00055e-06
 Reference value :  5.00092e-06
 Reference value :  5.00160e-06
 Reference value :  5.00223e-06
 Reference value :  5.00291e-06
 Reference value :  5.00363e-06
 Reference value :  5.00440e-06
 Reference value :  5.00524e-06
 Reference value :  5.00615e-06
 Reference value :  5.00702e-06
 Reference value :  5.00792e-06
 Reference value :  5.00885e-06
 Reference value :  5.00984e-06
 Reference value :  5.01084e-06
 Reference value :  5.01222e-06
 Reference value :  5.01390e-06
 Reference value :  5.01542e-06
 Reference value :  5.01707e-06
 Reference value :  5.01876e-06
 Reference value :  5.02054e-06
 Reference value :  5.02231e-06
 Reference value :  5.02369e-06
 Reference value :  5.02502e-06
 Reference value :  5.02671e-06
 Reference value :  5.02834e-06
 Reference value :  5.02988e-06
 Reference value :  5.03194e-06
 Reference value :  5.03392e-06
 Reference value :  5.03691e-06
 Reference value :  5.04066e-06
 Reference value :  5.04503e-06
 Reference value :  5.04939e-06
 Reference value :  5.05262e-06
 Reference value :  5.05568e-06
 Reference value :  5.05837e-06
 Reference value :  5.06136e-06
 Reference value :  5.06583e-06
 Reference value :  5.07060e-06
 Reference value :  5.07780e-06
 Reference value :  5.08766e-06
 Reference value :  5.09903e-06
 Reference value :  5.11287e-06
 Reference value :  5.13175e-06
 Reference value :  5.16218e-06
 Reference value :  5.20804e-06
 Reference value :  5.25010e-06
 Reference value :  5.25011e-06
 Reference value :  5.25013e-06
 Reference value :  5.25017e-06
 Reference value :  5.25020e-06
 Reference value :  5.25020e-06
 Reference value :  5.25020e-06
 Reference value :  5.25021e-06
 Reference value :  5.25021e-06
 Reference value :  5.25022e-06
 Reference value :  5.25025e-06
 Reference value :  5.25030e-06
 Reference value :  5.25039e-06
 Reference value :  5.25059e-06
 Reference value :  5.25093e-06
 Reference value :  5.25154e-06
 Reference value :  5.25216e-06
 Reference value :  5.25294e-06
 Reference value :  5.25375e-06
 Reference value :  5.25481e-06
 Reference value :  5.25578e-06
 Reference value :  5.25688e-06
 Reference value :  5.25797e-06
 Reference value :  5.25906e-06
 Reference value :  5.26083e-06
 Reference value :  5.26260e-06
 Reference value :  5.26541e-06
 Reference value :  5.26896e-06
 Reference value :  5.27427e-06
 Reference value :  5.28488e-06
 Reference value :  5.30336e-06
 Reference value :  5.33699e-06
 Reference value :  5.40425e-06
 Reference value :  5.50000e-06
 Reference value :  5.50001e-06
 Reference value :  5.50003e-06
 Reference value :  5.50007e-06
 Reference value :  5.50010e-06
 Reference value :  5.50010e-06
 Reference value :  5.50011e-06
 Reference value :  5.50013e-06
 Reference value :  5.50016e-06
 Reference value :  5.50023e-06
 Reference value :  5.50037e-06
 Reference value :  5.50056e-06
 Reference value :  5.50093e-06
 Reference value :  5.50161e-06
 Reference value :  5.50223e-06
 Reference value :  5.50291e-06
 Reference value :  5.50362e-06
 Reference value :  5.50438e-06
 Reference value :  5.50523e-06
 Reference value :  5.50615e-06
 Reference value :  5.50718e-06
 Reference value :  5.50852e-06
 Reference value :  5.50990e-06
 Reference value :  5.51134e-06
 Reference value :  5.51291e-06
 Reference value :  5.51459e-06
 Reference value :  5.51617e-06
 Reference value :  5.51781e-06
 Reference value :  5.51960e-06
 Reference value :  5.52164e-06
 Reference value :  5.52529e-06
 Reference value :  5.53066e-06
 Reference value :  5.54107e-06
 Reference value :  5.56067e-06
 Reference value :  5.59765e-06
 Reference value :  5.67161e-06
 Reference value :  5.75010e-06
 Reference value :  5.75011e-06
 Reference value :  5.75013e-06
 Reference value :  5.75017e-06
 Reference value :  5.75020e-06
 Reference value :  5.75020e-06
 Reference value :  5.75020e-06
 Reference value :  5.75021e-06
 Reference value :  5.75021e-06
 Reference value :  5.75022e-06
 Reference value :  5.75025e-06
 Reference value :  5.75030e-06
 Reference value :  5.75039e-06
 Reference value :  5.75059e-06
 Reference value :  5.75093e-06
 Reference value :  5.75154e-06
 Reference value :  5.75216e-06
 Reference value :  5.75294e-06
 Reference value :  5.75375e-06
 Reference value :  5.75481e-06
 Reference value :  5.75567e-06
 Reference value :  5.75668e-06
 Reference value :  5.75755e-06
 Reference value :  5.75850e-06
 Reference value :  5.75960e-06
 Reference value :  5.76083e-06
 Reference value :  5.76329e-06
 Reference value :  5.76585e-06
 Reference value :  5.77015e-06
 Reference value :  5.77441e-06
 Reference value :  5.77880e-06
 Reference value :  5.78220e-06
 Reference value :  5.78580e-06
 Reference value :  5.78982e-06
 Reference value :  5.79382e-06
 Reference value :  5.80182e-06
 Reference value :  5.81236e-06
 Reference value :  5.82924e-06
 Reference value :  5.86295e-06
 Reference value :  5.93037e-06
 Reference value :  6.00000e-06
 Reference value :  6.00001e-06
 Reference value :  6.00003e-06
 Reference value :  6.00007e-06
 Reference value :  6.00010e-06
 Reference value :  6.00010e-06
 Reference value :  6.00011e-06
 Reference value :  6.00013e-06
 Reference value :  6.00016e-06
 Reference value :  6.00023e-06
 Reference value :  6.00037e-06
 Reference value :  6.00055e-06
 Reference value :  6.00092e-06
 Reference value :  6.00160e-06
 Reference value :  6.00223e-06
 Reference value :  6.00291e-06
 Reference value :  6.00363e-06
 Reference value :  6.00439e-06
 Reference value :  6.00527e-06
 Reference value :  6.00621e-06
 Reference value :  6.00717e-06
 Reference value :  6.00810e-06
 Reference value :  6.00894e-06
 Reference value :  6.00990e-06
 Reference value :  6.01091e-06
 Reference value :  6.01219e-06
 Reference value :  6.01393e-06
 Reference value :  6.01572e-06
 Reference value :  6.01744e-06
 Reference value :  6.01948e-06
 Reference value :  6.02134e-06
 Reference value :  6.02323e-06
 Reference value :  6.02462e-06
 Reference value :  6.02590e-06
 Reference value :  6.02694e-06
 Reference value :  6.02815e-06
 Reference value :  6.02938e-06
 Reference value :  6.03104e-06
 Reference value :  6.03262e-06
 Reference value :  6.03543e-06
 Reference value :  6.03833e-06
 Reference value :  6.04412e-06
 Reference value :  6.05424e-06
 Reference value :  6.06064e-06
 Reference value :  6.06688e-06
 Reference value :  6.07368e-06
 Reference value :  6.08618e-06
 Reference value :  6.10553e-06
 Reference value :  6.14092e-06
 Reference value :  6.21172e-06
 Reference value :  6.25010e-06
 Reference value :  6.25011e-06
 Reference value :  6.25013e-06
 Reference value :  6.25017e-06
 Reference value :  6.25020e-06
 Reference value :  6.25020e-06
 Reference value :  6.25020e-06
 Reference value :  6.25021e-06
 Reference value :  6.25021e-06
 Reference value :  6.25022e-06
 Reference value :  6.25025e-06
 Reference value :  6.25030e-06
 Reference value :  6.25039e-06
 Reference value :  6.25059e-06
 Reference value :  6.25093e-06
 Reference value :  6.25154e-06
 Reference value :  6.25216e-06
 Reference value :  6.25294e-06
 Reference value :  6.25375e-06
 Reference value :  6.25481e-06
 Reference value :  6.25578e-06
 Reference value :  6.25688e-06
 Reference value :  6.25797e-06
 Reference value :  6.25905e-06
 Reference value :  6.26083e-06
 Reference value :  6.26259e-06
 Reference value :  6.26540e-06
 Reference value :  6.26895e-06
 Reference value :  6.27425e-06
 Reference value :  6.28484e-06
 Reference value :  6.30325e-06
 Reference value :  6.33674e-06
 Reference value :  6.40371e-06
 Reference value :  6.50000e-06
 Reference value :  6.50001e-06
 Reference value :  6.50003e-06
 Reference value :  6.50007e-06
 Reference value :  6.50010e-06
 Reference value :  6.50010e-06
 Reference value :  6.50011e-06
 Reference value :  6.50013e-06
 Reference value :  6.50016e-06
 Reference value :  6.50023e-06
 Reference value :  6.50037e-06
 Reference value :  6.50056e-06
 Reference value :  6.50093e-06
 Reference value :  6.50161e-06
 Reference value :  6.50223e-06
 Reference value :  6.50291e-06
 Reference value :  6.50362e-06
 Reference value :  6.50438e-06
 Reference value :  6.50523e-06
 Reference value :  6.50615e-06
 Reference value :  6.50711e-06
 Reference value :  6.50847e-06
 Reference value :  6.50978e-06
 Reference value :  6.51141e-06
 Reference value :  6.51290e-06
 Reference value :  6.51444e-06
 Reference value :  6.51588e-06
 Reference value :  6.51746e-06
 Reference value :  6.51911e-06
 Reference value :  6.52101e-06
 Reference value :  6.52479e-06
 Reference value :  6.53048e-06
 Reference value :  6.54184e-06
 Reference value :  6.56458e-06
 Reference value :  6.61005e-06
 Reference value :  6.70099e-06
 Reference value :  6.75010e-06
 Reference value :  6.75011e-06
 Reference value :  6.75013e-06
 Reference value :  6.75017e-06
 Reference value :  6.75020e-06
 Reference value :  6.75020e-06
 Reference value :  6.75020e-06
 Reference value :  6.75021e-06
 Reference value :  6.75021e-06
 Reference value :  6.75022e-06
 Reference value :  6.75025e-06
 Reference value :  6.75030e-06
 Reference value :  6.75039e-06
 Reference value :  6.75059e-06
 Reference value :  6.75093e-06
 Reference value :  6.75154e-06
 Reference value :  6.75216e-06
 Reference value :  6.75294e-06
 Reference value :  6.75375e-06
 Reference value :  6.75481e-06
 Reference value :  6.75575e-06
 Reference value :  6.75682e-06
 Reference value :  6.75777e-06
 Reference value :  6.75877e-06
 Reference value :  6.75991e-06
 Reference value :  6.76118e-06
 Reference value :  6.76373e-06
 Reference value :  6.76655e-06
 Reference value :  6.77108e-06
 Reference value :  6.77722e-06
 Reference value :  6.78949e-06
 Reference value :  6.81403e-06
 Reference value :  6.86311e-06
 Reference value :  6.96127e-06
 Reference value :  7.00000e-06
 Reference value :  7.00001e-06
 Reference value :  7.00003e-06
 Reference value :  7.00007e-06
 Reference value :  7.00010e-06
 Reference value :  7.00010e-06
 Reference value :  7.00011e-06
 Reference value :  7.00013e-06
 Reference value :  7.00016e-06
 Reference value :  7.00023e-06
 Reference value :  7.00037e-06
 Reference value :  7.00055e-06
 Reference value :  7.00092e-06
 Reference value :  7.00160e-06
 Reference value :  7.00223e-06
 Reference value :  7.00291e-06
 Reference value :  7.00363e-06
 Reference value :  7.00439e-06
 Reference value :  7.00523e-06
 Reference value :  7.00615e-06
 Reference value :  7.00717e-06
 Reference value :  7.00818e-06
 Reference value :  7.00904e-06
 Reference value :  7.01006e-06
 Reference value :  7.01108e-06
 Reference value :  7.01240e-06
 Reference value :  7.01436e-06
 Reference value :  7.01723e-06
 Reference value :  7.02046e-06
 Reference value :  7.02288e-06
 Reference value :  7.02507e-06
 Reference value :  7.02723e-06
 Reference value :  7.02923e-06
 Reference value :  7.03141e-06
 Reference value :  7.03376e-06
 Reference value :  7.03631e-06
 Reference value :  7.03925e-06
 Reference value :  7.04316e-06
 Reference value :  7.04709e-06
 Reference value :  7.05081e-06
 Reference value :  7.05560e-06
 Reference value :  7.06321e-06
 Reference value :  7.07458e-06
 Reference value :  7.08398e-06
 Reference value :  7.09373e-06
 Reference value :  7.10666e-06
 Reference value :  7.11866e-06
 Reference value :  7.12670e-06
 Reference value :  7.13541e-06
 Reference value :  7.14721e-06
 Reference value :  7.16179e-06
 Reference value :  7.17773e-06
 Reference value :  7.19642e-06
 Reference value :  7.21601e-06
 Reference value :  7.25010e-06
 Reference value :  7.25011e-06
 Reference value :  7.25013e-06
 Reference value :  7.25017e-06
 Reference value :  7.25020e-06
 Reference value :  7.25020e-06
 Reference value :  7.25020e-06
 Reference value :  7.25021e-06
 Reference value :  7.25021e-06
 Reference value :  7.25022e-06
 Reference value :  7.25025e-06
 Reference value :  7.25030e-06
 Reference value :  7.25039e-06
 Reference value :  7.25059e-06
 Reference value :  7.25093e-06
 Reference value :  7.25154e-06
 Reference value :  7.25217e-06
 Reference value :  7.25294e-06
 Reference value :  7.25375e-06
 Reference value :  7.25482e-06
 Reference value :  7.25574e-06
 Reference value :  7.25681e-06
 Reference value :  7.25793e-06
 Reference value :  7.25897e-06
 Reference value :  7.26077e-06
 Reference value :  7.26246e-06
 Reference value :  7.26529e-06
 Reference value :  7.26873e-06
 Reference value :  7.27395e-06
 Reference value :  7.28440e-06
 Reference value :  7.30304e-06
 Reference value :  7.33707e-06
 Reference value :  7.40515e-06
 Reference value :  7.50000e-06
 Reference value :  7.50001e-06
 Reference value :  7.50003e-06
 Reference value :  7.50007e-06
 Reference value :  7.50010e-06
 Reference value :  7.50010e-06
 Reference value :  7.50011e-06
 Reference value :  7.50013e-06
 Reference value :  7.50016e-06
 Reference value :  7.50023e-06
 Reference value :  7.50037e-06
 Reference value :  7.50056e-06
 Reference value :  7.50093e-06
 Reference value :  7.50152e-06
 Reference value :  7.50214e-06
 Reference value :  7.50284e-06
 Reference value :  7.50356e-06
 Reference value :  7.50432e-06
 Reference value :  7.50517e-06
 Reference value :  7.50609e-06
 Reference value :  7.50714e-06
 Reference value :  7.50847e-06
 Reference value :  7.50985e-06
 Reference value :  7.51155e-06
 Reference value :  7.51308e-06
 Reference value :  7.51466e-06
 Reference value :  7.51609e-06
 Reference value :  7.51771e-06
 Reference value :  7.51931e-06
 Reference value :  7.52118e-06
 Reference value :  7.52491e-06
 Reference value :  7.53120e-06
 Reference value :  7.54379e-06
 Reference value :  7.56897e-06
 Reference value :  7.61932e-06
 Reference value :  7.72002e-06
 Reference value :  7.75010e-06
 Reference value :  7.75011e-06
 Reference value :  7.75013e-06
 Reference value :  7.75017e-06
 Reference value :  7.75020e-06
 Reference value :  7.75020e-06
 Reference value :  7.75020e-06
 Reference value :  7.75021e-06
 Reference value :  7.75021e-06
 Reference value :  7.75022e-06
 Reference value :  7.75025e-06
 Reference value :  7.75030e-06
 Reference value :  7.75039e-06
 Reference value :  7.75059e-06
 Reference value :  7.75093e-06
 Reference value :  7.75154e-06
 Reference value :  7.75217e-06
 Reference value :  7.75294e-06
 Reference value :  7.75375e-06
 Reference value :  7.75482e-06
 Reference value :  7.75571e-06
 Reference value :  7.75675e-06
 Reference value :  7.75766e-06
 Reference value :  7.75864e-06
 Reference value :  7.75976e-06
 Reference value :  7.76101e-06
 Reference value :  7.76353e-06
 Reference value :  7.76625e-06
 Reference value :  7.77068e-06
 Reference value :  7.77644e-06
 Reference value :  7.78797e-06
 Reference value :  7.81103e-06
 Reference value :  7.85714e-06
 Reference value :  7.94936e-06
 Reference value :  8.00000e-06
 Reference value :  8.00001e-06
 Reference value :  8.00003e-06
 Reference value :  8.00007e-06
 Reference value :  8.00010e-06
 Reference value :  8.00010e-06
 Reference value :  8.00011e-06
 Reference value :  8.00013e-06
 Reference value :  8.00016e-06
 Reference value :  8.00023e-06
 Reference value :  8.00037e-06
 Reference value :  8.00055e-06
 Reference value :  8.00092e-06
 Reference value :  8.00151e-06
 Reference value :  8.00214e-06
 Reference value :  8.00284e-06
 Reference value :  8.00356e-06
 Reference value :  8.00433e-06
 Reference value :  8.00517e-06
 Reference value :  8.00609e-06
 Reference value :  8.00702e-06
 Reference value :  8.00802e-06
 Reference value :  8.00897e-06
 Reference value :  8.00995e-06
 Reference value :  8.01097e-06
 Reference value :  8.01231e-06
 Reference value :  8.01413e-06
 Reference value :  8.01685e-06
 Reference value :  8.02022e-06
 Reference value :  8.02271e-06
 Reference value :  8.02546e-06
 Reference value :  8.02813e-06
 Reference value :  8.03121e-06
 Reference value :  8.03586e-06
 Reference value :  8.04193e-06
 Reference value :  8.05212e-06
 Reference value :  8.06824e-06
 Reference value :  8.09507e-06
 Reference value :  8.14695e-06
 Reference value :  8.24928e-06
 Reference value :  8.25010e-06
 Reference value :  8.25011e-06
 Reference value :  8.25013e-06
 Reference value :  8.25017e-06
 Reference value :  8.25020e-06
 Reference value :  8.25020e-06
 Reference value :  8.25020e-06
 Reference value :  8.25021e-06
 Reference value :  8.25021e-06
 Reference value :  8.25022e-06
 Reference value :  8.25025e-06
 Reference value :  8.25030e-06
 Reference value :  8.25039e-06
 Reference value :  8.25059e-06
 Reference value :  8.25097e-06
 Reference value :  8.25154e-06
 Reference value :  8.25221e-06
 Reference value :  8.25295e-06
 Reference value :  8.25379e-06
 Reference value :  8.25485e-06
 Reference value :  8.25616e-06
 Reference value :  8.25753e-06
 Reference value :  8.25911e-06
 Reference value :  8.26083e-06
 Reference value :  8.26340e-06
 Reference value :  8.26637e-06
 Reference value :  8.27042e-06
 Reference value :  8.27626e-06
 Reference value :  8.28792e-06
 Reference value :  8.31126e-06
 Reference value :  8.35761e-06
 Reference value :  8.45031e-06
 Reference value :  8.50000e-06
No. of Data Rows : 1330
ngspice-44 done
