
Note: Compatibility modes selected: hs a


Circuit: ** sch_path: /home/issa/cace/sar-adc-using-sky130-pdk/runs/run_2025-09-20_12-15-47/parameters/sampling_rate/run_00/sampling_rate.sch

option SCALE: Scale is set to 1e-06 for instance and model parameters
option SCALE: Scale is set to 1e-06 for instance and model parameters
option SCALE: Scale is set to 1e-06 for instance and model parameters
option SCALE: Scale is set to 1e-06 for instance and model parameters
Doing analysis at TEMP = 27.000000 and TNOM = 27.000000

Using KLU as Direct Linear Solver
Operating point simulation skipped by 'uic',
  now using transient initial conditions.
 Reference value :  1.00000e-12
 Reference value :  1.02800e-12
 Reference value :  1.19600e-12
 Reference value :  2.37489e-12
 Reference value :  6.32514e-12
 Reference value :  3.16791e-11
 Reference value :  1.00000e-10
 Reference value :  1.33741e-10
 Reference value :  4.03665e-10
 Reference value :  9.57695e-10
 Reference value :  1.87110e-09
 Reference value :  3.31051e-09
 Reference value :  5.94190e-09
 Reference value :  7.94616e-09
 Reference value :  9.71219e-09
 Reference value :  1.38175e-08
 Reference value :  1.99725e-08
 Reference value :  2.60755e-08
 Reference value :  3.21446e-08
 Reference value :  7.93784e-08
 Reference value :  2.50100e-07
 Reference value :  2.50170e-07
 Reference value :  2.50222e-07
 Reference value :  2.50312e-07
 Reference value :  2.50748e-07
 Reference value :  2.51917e-07
 Reference value :  2.53072e-07
 Reference value :  2.54457e-07
 Reference value :  2.55816e-07
 Reference value :  2.59016e-07
 Reference value :  2.66533e-07
 Reference value :  3.03531e-07
 Reference value :  5.00010e-07
 Reference value :  5.00070e-07
 Reference value :  5.00124e-07
 Reference value :  5.00348e-07
 Reference value :  5.01302e-07
 Reference value :  5.02209e-07
 Reference value :  5.03314e-07
 Reference value :  5.05649e-07
 Reference value :  5.08093e-07
 Reference value :  5.11293e-07
 Reference value :  5.14403e-07
 Reference value :  5.16018e-07
 Reference value :  5.19868e-07
 Reference value :  5.32167e-07
 Reference value :  5.97062e-07
 Reference value :  7.50100e-07
 Reference value :  7.50170e-07
 Reference value :  7.50224e-07
 Reference value :  7.50320e-07
 Reference value :  7.51069e-07
 Reference value :  7.52047e-07
 Reference value :  7.53288e-07
 Reference value :  7.54715e-07
 Reference value :  7.56131e-07
 Reference value :  7.57975e-07
 Reference value :  7.61446e-07
 Reference value :  7.69328e-07
 Reference value :  7.75669e-07
 Reference value :  8.23270e-07
 Reference value :  1.00001e-06
 Reference value :  1.00010e-06
 Reference value :  1.00016e-06
 Reference value :  1.00052e-06
 Reference value :  1.00130e-06
 Reference value :  1.00224e-06
 Reference value :  1.00404e-06
 Reference value :  1.00458e-06
 Reference value :  1.00583e-06
 Reference value :  1.00711e-06
 Reference value :  1.00899e-06
 Reference value :  1.01144e-06
 Reference value :  1.01377e-06
 Reference value :  1.01611e-06
 Reference value :  1.01833e-06
 Reference value :  1.02078e-06
 Reference value :  1.02646e-06
 Reference value :  1.04925e-06
 Reference value :  1.17344e-06
 Reference value :  1.25011e-06
 Reference value :  1.25020e-06
 Reference value :  1.25026e-06
 Reference value :  1.25070e-06
 Reference value :  1.25153e-06
 Reference value :  1.25255e-06
 Reference value :  1.25404e-06
 Reference value :  1.25532e-06
 Reference value :  1.25687e-06
 Reference value :  1.26171e-06
 Reference value :  1.28159e-06
 Reference value :  1.39196e-06
 Reference value :  1.50003e-06
 Reference value :  1.50010e-06
 Reference value :  1.50016e-06
 Reference value :  1.50035e-06
 Reference value :  1.50130e-06
 Reference value :  1.50221e-06
 Reference value :  1.50405e-06
 Reference value :  1.50561e-06
 Reference value :  1.50754e-06
 Reference value :  1.51056e-06
 Reference value :  1.51413e-06
 Reference value :  1.54327e-06
 Reference value :  1.75010e-06
 Reference value :  1.75017e-06
 Reference value :  1.75022e-06
 Reference value :  1.75070e-06
 Reference value :  1.75153e-06
 Reference value :  1.75202e-06
 Reference value :  1.75326e-06
 Reference value :  1.75465e-06
 Reference value :  1.75605e-06
 Reference value :  1.75787e-06
 Reference value :  1.75996e-06
 Reference value :  1.76550e-06
 Reference value :  1.79849e-06
 Reference value :  2.00000e-06
 Reference value :  2.00007e-06
 Reference value :  2.00012e-06
 Reference value :  2.00035e-06
 Reference value :  2.00130e-06
 Reference value :  2.00224e-06
 Reference value :  2.00403e-06
 Reference value :  2.00457e-06
 Reference value :  2.00583e-06
 Reference value :  2.00712e-06
 Reference value :  2.01046e-06
 Reference value :  2.01145e-06
 Reference value :  2.01377e-06
 Reference value :  2.01612e-06
 Reference value :  2.01836e-06
 Reference value :  2.02086e-06
 Reference value :  2.02667e-06
 Reference value :  2.07638e-06
 Reference value :  2.16470e-06
 Reference value :  2.25013e-06
 Reference value :  2.25021e-06
 Reference value :  2.25032e-06
 Reference value :  2.25106e-06
 Reference value :  2.25204e-06
 Reference value :  2.25405e-06
 Reference value :  2.25535e-06
 Reference value :  2.25693e-06
 Reference value :  2.25960e-06
 Reference value :  2.27117e-06
 Reference value :  2.33226e-06
 Reference value :  2.50000e-06
 Reference value :  2.50007e-06
 Reference value :  2.50012e-06
 Reference value :  2.50035e-06
 Reference value :  2.50130e-06
 Reference value :  2.50221e-06
 Reference value :  2.50405e-06
 Reference value :  2.50561e-06
 Reference value :  2.50754e-06
 Reference value :  2.50947e-06
 Reference value :  2.51277e-06
 Reference value :  2.52859e-06
 Reference value :  2.72094e-06
 Reference value :  2.75013e-06
 Reference value :  2.75021e-06
 Reference value :  2.75032e-06
 Reference value :  2.75070e-06
 Reference value :  2.75152e-06
 Reference value :  2.75254e-06
 Reference value :  2.75403e-06
 Reference value :  2.75533e-06
 Reference value :  2.75696e-06
 Reference value :  2.75995e-06
 Reference value :  2.76547e-06
 Reference value :  2.78376e-06
 Reference value :  2.85713e-06
 Reference value :  3.00003e-06
 Reference value :  3.00011e-06
 Reference value :  3.00022e-06
 Reference value :  3.00086e-06
 Reference value :  3.00176e-06
 Reference value :  3.00277e-06
 Reference value :  3.00403e-06
 Reference value :  3.00457e-06
 Reference value :  3.00583e-06
 Reference value :  3.00644e-06
 Reference value :  3.00901e-06
 Reference value :  3.01145e-06
 Reference value :  3.01377e-06
 Reference value :  3.01614e-06
 Reference value :  3.01840e-06
 Reference value :  3.02096e-06
 Reference value :  3.02453e-06
 Reference value :  3.05356e-06
 Reference value :  3.18490e-06
 Reference value :  3.25011e-06
 Reference value :  3.25017e-06
 Reference value :  3.25022e-06
 Reference value :  3.25045e-06
 Reference value :  3.25105e-06
 Reference value :  3.25202e-06
 Reference value :  3.25326e-06
 Reference value :  3.25463e-06
 Reference value :  3.25684e-06
 Reference value :  3.26165e-06
 Reference value :  3.27046e-06
 Reference value :  3.33149e-06
 Reference value :  3.50001e-06
 Reference value :  3.50010e-06
 Reference value :  3.50016e-06
 Reference value :  3.50052e-06
 Reference value :  3.50130e-06
 Reference value :  3.50221e-06
 Reference value :  3.50405e-06
 Reference value :  3.50674e-06
 Reference value :  3.50754e-06
 Reference value :  3.50947e-06
 Reference value :  3.51277e-06
 Reference value :  3.52849e-06
 Reference value :  3.61773e-06
 Reference value :  3.75011e-06
 Reference value :  3.75020e-06
 Reference value :  3.75026e-06
 Reference value :  3.75070e-06
 Reference value :  3.75202e-06
 Reference value :  3.75403e-06
 Reference value :  3.75532e-06
 Reference value :  3.75695e-06
 Reference value :  3.75883e-06
 Reference value :  3.76316e-06
 Reference value :  3.77510e-06
 Reference value :  3.85723e-06
 Reference value :  4.00001e-06
 Reference value :  4.00010e-06
 Reference value :  4.00022e-06
 Reference value :  4.00086e-06
 Reference value :  4.00130e-06
 Reference value :  4.00224e-06
 Reference value :  4.00403e-06
 Reference value :  4.00457e-06
 Reference value :  4.00583e-06
 Reference value :  4.00712e-06
 Reference value :  4.00901e-06
 Reference value :  4.01146e-06
 Reference value :  4.01378e-06
 Reference value :  4.01615e-06
 Reference value :  4.01844e-06
 Reference value :  4.02103e-06
 Reference value :  4.02722e-06
 Reference value :  4.05531e-06
 Reference value :  4.11905e-06
 Reference value :  4.19040e-06
 Reference value :  4.25011e-06
 Reference value :  4.25020e-06
 Reference value :  4.25026e-06
 Reference value :  4.25070e-06
 Reference value :  4.25153e-06
 Reference value :  4.25256e-06
 Reference value :  4.25405e-06
 Reference value :  4.25534e-06
 Reference value :  4.25690e-06
 Reference value :  4.26180e-06
 Reference value :  4.28155e-06
 Reference value :  4.38675e-06
 Reference value :  4.50001e-06
 Reference value :  4.50010e-06
 Reference value :  4.50022e-06
 Reference value :  4.50086e-06
 Reference value :  4.50177e-06
 Reference value :  4.50270e-06
 Reference value :  4.50405e-06
 Reference value :  4.50561e-06
 Reference value :  4.50754e-06
 Reference value :  4.50947e-06
 Reference value :  4.51158e-06
 Reference value :  4.51412e-06
 Reference value :  4.52842e-06
 Reference value :  4.61663e-06
 Reference value :  4.75011e-06
 Reference value :  4.75020e-06
 Reference value :  4.75026e-06
 Reference value :  4.75070e-06
 Reference value :  4.75152e-06
 Reference value :  4.75254e-06
 Reference value :  4.75403e-06
 Reference value :  4.75532e-06
 Reference value :  4.75694e-06
 Reference value :  4.75882e-06
 Reference value :  4.76315e-06
 Reference value :  4.77509e-06
 Reference value :  4.85733e-06
 Reference value :  5.00001e-06
 Reference value :  5.00010e-06
 Reference value :  5.00016e-06
 Reference value :  5.00052e-06
 Reference value :  5.00130e-06
 Reference value :  5.00224e-06
 Reference value :  5.00403e-06
 Reference value :  5.00457e-06
 Reference value :  5.00583e-06
 Reference value :  5.00712e-06
 Reference value :  5.00901e-06
 Reference value :  5.01146e-06
 Reference value :  5.01378e-06
 Reference value :  5.01619e-06
 Reference value :  5.01849e-06
 Reference value :  5.02112e-06
 Reference value :  5.02766e-06
 Reference value :  5.05459e-06
 Reference value :  5.06996e-06
 Reference value :  5.11225e-06
 Reference value :  5.18370e-06
 Reference value :  5.25011e-06
 Reference value :  5.25020e-06
 Reference value :  5.25026e-06
 Reference value :  5.25070e-06
 Reference value :  5.25153e-06
 Reference value :  5.25256e-06
 Reference value :  5.25404e-06
 Reference value :  5.25533e-06
 Reference value :  5.25690e-06
 Reference value :  5.26178e-06
 Reference value :  5.29890e-06
 Reference value :  5.50000e-06
 Reference value :  5.50007e-06
 Reference value :  5.50012e-06
 Reference value :  5.50035e-06
 Reference value :  5.50130e-06
 Reference value :  5.50221e-06
 Reference value :  5.50405e-06
 Reference value :  5.50561e-06
 Reference value :  5.50754e-06
 Reference value :  5.50947e-06
 Reference value :  5.51158e-06
 Reference value :  5.51412e-06
 Reference value :  5.52837e-06
 Reference value :  5.61585e-06
 Reference value :  5.75011e-06
 Reference value :  5.75020e-06
 Reference value :  5.75026e-06
 Reference value :  5.75070e-06
 Reference value :  5.75152e-06
 Reference value :  5.75254e-06
 Reference value :  5.75403e-06
 Reference value :  5.75532e-06
 Reference value :  5.75694e-06
 Reference value :  5.75882e-06
 Reference value :  5.76123e-06
 Reference value :  5.76901e-06
 Reference value :  5.79850e-06
 Reference value :  6.00000e-06
 Reference value :  6.00007e-06
 Reference value :  6.00012e-06
 Reference value :  6.00035e-06
 Reference value :  6.00130e-06
 Reference value :  6.00224e-06
 Reference value :  6.00340e-06
 Reference value :  6.00457e-06
 Reference value :  6.00583e-06
 Reference value :  6.00712e-06
 Reference value :  6.01047e-06
 Reference value :  6.01146e-06
 Reference value :  6.01378e-06
 Reference value :  6.01623e-06
 Reference value :  6.01854e-06
 Reference value :  6.02134e-06
 Reference value :  6.02823e-06
 Reference value :  6.03843e-06
 Reference value :  6.05706e-06
 Reference value :  6.13736e-06
 Reference value :  6.25010e-06
 Reference value :  6.25017e-06
 Reference value :  6.25022e-06
 Reference value :  6.25045e-06
 Reference value :  6.25105e-06
 Reference value :  6.25202e-06
 Reference value :  6.25326e-06
 Reference value :  6.25463e-06
 Reference value :  6.25596e-06
 Reference value :  6.25774e-06
 Reference value :  6.26494e-06
 Reference value :  6.29825e-06
 Reference value :  6.38731e-06
 Reference value :  6.50003e-06
 Reference value :  6.50011e-06
 Reference value :  6.50022e-06
 Reference value :  6.50086e-06
 Reference value :  6.50177e-06
 Reference value :  6.50270e-06
 Reference value :  6.50405e-06
 Reference value :  6.50561e-06
 Reference value :  6.50754e-06
 Reference value :  6.50947e-06
 Reference value :  6.51158e-06
 Reference value :  6.51412e-06
 Reference value :  6.52833e-06
 Reference value :  6.61529e-06
 Reference value :  6.75011e-06
 Reference value :  6.75020e-06
 Reference value :  6.75026e-06
 Reference value :  6.75070e-06
 Reference value :  6.75152e-06
 Reference value :  6.75254e-06
 Reference value :  6.75403e-06
 Reference value :  6.75532e-06
 Reference value :  6.75694e-06
 Reference value :  6.75994e-06
 Reference value :  6.76543e-06
 Reference value :  6.78373e-06
 Reference value :  6.85755e-06
 Reference value :  7.00001e-06
 Reference value :  7.00010e-06
 Reference value :  7.00016e-06
 Reference value :  7.00052e-06
 Reference value :  7.00130e-06
 Reference value :  7.00224e-06
 Reference value :  7.00403e-06
 Reference value :  7.00457e-06
 Reference value :  7.00583e-06
 Reference value :  7.00712e-06
 Reference value :  7.01047e-06
 Reference value :  7.01146e-06
 Reference value :  7.01378e-06
 Reference value :  7.01624e-06
 Reference value :  7.01857e-06
 Reference value :  7.02131e-06
 Reference value :  7.02508e-06
 Reference value :  7.03057e-06
 Reference value :  7.05631e-06
 Reference value :  7.20165e-06
 Reference value :  7.25013e-06
 Reference value :  7.25021e-06
 Reference value :  7.25045e-06
 Reference value :  7.25105e-06
 Reference value :  7.25202e-06
 Reference value :  7.25403e-06
 Reference value :  7.25530e-06
 Reference value :  7.25683e-06
 Reference value :  7.26163e-06
 Reference value :  7.28103e-06
 Reference value :  7.38691e-06
 Reference value :  7.50001e-06
 Reference value :  7.50010e-06
 Reference value :  7.50016e-06
 Reference value :  7.50052e-06
 Reference value :  7.50130e-06
 Reference value :  7.50221e-06
 Reference value :  7.50405e-06
 Reference value :  7.50561e-06
 Reference value :  7.50754e-06
 Reference value :  7.50947e-06
 Reference value :  7.51158e-06
 Reference value :  7.51412e-06
 Reference value :  7.52829e-06
 Reference value :  7.61473e-06
 Reference value :  7.75011e-06
 Reference value :  7.75020e-06
 Reference value :  7.75026e-06
 Reference value :  7.75070e-06
 Reference value :  7.75152e-06
 Reference value :  7.75254e-06
 Reference value :  7.75403e-06
 Reference value :  7.75531e-06
 Reference value :  7.75693e-06
 Reference value :  7.75881e-06
 Reference value :  7.76315e-06
 Reference value :  7.77507e-06
 Reference value :  7.85758e-06
 Reference value :  8.00001e-06
 Reference value :  8.00010e-06
 Reference value :  8.00016e-06
 Reference value :  8.00052e-06
 Reference value :  8.00130e-06
 Reference value :  8.00224e-06
 Reference value :  8.00403e-06
 Reference value :  8.00457e-06
 Reference value :  8.00521e-06
 Reference value :  8.00583e-06
 Reference value :  8.00644e-06
 Reference value :  8.00802e-06
 Reference value :  8.01001e-06
 Reference value :  8.01171e-06
 Reference value :  8.01394e-06
 Reference value :  8.01720e-06
 Reference value :  8.02184e-06
 Reference value :  8.04144e-06
 Reference value :  8.22514e-06
 Reference value :  8.25013e-06
 Reference value :  8.25021e-06
 Reference value :  8.25032e-06
 Reference value :  8.25070e-06
 Reference value :  8.25153e-06
 Reference value :  8.25256e-06
 Reference value :  8.25425e-06
 Reference value :  8.25614e-06
 Reference value :  8.25861e-06
 Reference value :  8.26636e-06
 Reference value :  8.29431e-06
 Reference value :  8.43682e-06
 Reference value :  8.50003e-06
 Reference value :  8.50011e-06
 Reference value :  8.50022e-06
 Reference value :  8.50098e-06
 Reference value :  8.50208e-06
 Reference value :  8.50256e-06
 Reference value :  8.50374e-06
 Reference value :  8.50513e-06
 Reference value :  8.50569e-06
 Reference value :  8.50704e-06
 Reference value :  8.51120e-06
 Reference value :  8.52129e-06
 Reference value :  8.52726e-06
 Reference value :  8.53215e-06
 Reference value :  8.53581e-06
 Reference value :  8.54258e-06
 Reference value :  8.54877e-06
 Reference value :  8.55709e-06
 Reference value :  8.57991e-06
 Reference value :  8.66074e-06
 Reference value :  8.75011e-06
 Reference value :  8.75020e-06
 Reference value :  8.75032e-06
 Reference value :  8.75105e-06
 Reference value :  8.75203e-06
 Reference value :  8.75328e-06
 Reference value :  8.75466e-06
 Reference value :  8.75600e-06
 Reference value :  8.75790e-06
 Reference value :  8.76531e-06
 Reference value :  8.79941e-06
 Reference value :  8.98515e-06
No. of Data Rows : 1321
ngspice-44 done
