
Note: Compatibility modes selected: hs a


Circuit: ** sch_path: /home/ece/cace/sar-adc-using-sky130-pdk/runs/run_2025-09-11_18-36-56/parameters/dnl/run_0/sar_output_dnl.sch

option SCALE: Scale is set to 1e-06 for instance and model parameters
option SCALE: Scale is set to 1e-06 for instance and model parameters
option SCALE: Scale is set to 1e-06 for instance and model parameters
option SCALE: Scale is set to 1e-06 for instance and model parameters
Doing analysis at TEMP = 27.000000 and TNOM = 27.000000

Using KLU as Direct Linear Solver
Operating point simulation skipped by 'uic',
  now using transient initial conditions.
 Reference value :  1.00000e-12
 Reference value :  1.02772e-12
 Reference value :  1.08316e-12
 Reference value :  1.19404e-12
 Reference value :  1.33849e-12
 Reference value :  1.62739e-12
 Reference value :  2.20519e-12
 Reference value :  3.06332e-12
 Reference value :  3.96416e-12
 Reference value :  5.17322e-12
 Reference value :  6.88311e-12
 Reference value :  9.99664e-12
 Reference value :  1.36402e-11
 Reference value :  2.02639e-11
 Reference value :  2.71206e-11
 Reference value :  3.59705e-11
 Reference value :  4.67866e-11
 Reference value :  6.52071e-11
 Reference value :  8.57775e-11
 Reference value :  1.00000e-10
 Reference value :  1.01175e-10
 Reference value :  1.03524e-10
 Reference value :  1.08223e-10
 Reference value :  1.17620e-10
 Reference value :  1.36414e-10
 Reference value :  1.74003e-10
 Reference value :  2.49181e-10
 Reference value :  3.97868e-10
 Reference value :  5.58452e-10
 Reference value :  8.18554e-10
 Reference value :  1.16510e-09
 Reference value :  1.62155e-09
 Reference value :  2.35823e-09
 Reference value :  3.06808e-09
 Reference value :  3.68765e-09
 Reference value :  4.47859e-09
 Reference value :  5.27933e-09
 Reference value :  6.18369e-09
 Reference value :  7.50282e-09
 Reference value :  8.79955e-09
 Reference value :  9.94068e-09
 Reference value :  1.09321e-08
 Reference value :  1.19576e-08
 Reference value :  1.29235e-08
 Reference value :  1.45242e-08
 Reference value :  1.65184e-08
 Reference value :  1.97701e-08
 Reference value :  2.31969e-08
 Reference value :  2.63783e-08
 Reference value :  2.90690e-08
 Reference value :  3.19843e-08
 Reference value :  3.51342e-08
 Reference value :  3.84099e-08
 Reference value :  4.33301e-08
 Reference value :  5.07895e-08
 Reference value :  6.27386e-08
 Reference value :  8.66368e-08
 Reference value :  1.27624e-07
 Reference value :  1.89156e-07
 Reference value :  2.50100e-07
 Reference value :  2.50110e-07
 Reference value :  2.50130e-07
 Reference value :  2.50170e-07
 Reference value :  2.50200e-07
 Reference value :  2.50201e-07
 Reference value :  2.50202e-07
 Reference value :  2.50204e-07
 Reference value :  2.50208e-07
 Reference value :  2.50216e-07
 Reference value :  2.50233e-07
 Reference value :  2.50267e-07
 Reference value :  2.50335e-07
 Reference value :  2.50413e-07
 Reference value :  2.50567e-07
 Reference value :  2.50717e-07
 Reference value :  2.51015e-07
 Reference value :  2.51340e-07
 Reference value :  2.51860e-07
 Reference value :  2.52429e-07
 Reference value :  2.53221e-07
 Reference value :  2.54045e-07
 Reference value :  2.55123e-07
 Reference value :  2.55874e-07
 Reference value :  2.56731e-07
 Reference value :  2.57738e-07
 Reference value :  2.58848e-07
 Reference value :  2.60172e-07
 Reference value :  2.62414e-07
 Reference value :  2.64466e-07
 Reference value :  2.68072e-07
 Reference value :  2.72834e-07
 Reference value :  2.82359e-07
 Reference value :  2.98908e-07
 Reference value :  3.27179e-07
 Reference value :  3.83720e-07
 Reference value :  4.96803e-07
 Reference value :  5.00000e-07
 Reference value :  5.00010e-07
 Reference value :  5.00030e-07
 Reference value :  5.00070e-07
 Reference value :  5.00100e-07
 Reference value :  5.00104e-07
 Reference value :  5.00112e-07
 Reference value :  5.00129e-07
 Reference value :  5.00162e-07
 Reference value :  5.00229e-07
 Reference value :  5.00362e-07
 Reference value :  5.00537e-07
 Reference value :  5.00888e-07
 Reference value :  5.01502e-07
 Reference value :  5.02193e-07
 Reference value :  5.02817e-07
 Reference value :  5.03504e-07
 Reference value :  5.04212e-07
 Reference value :  5.05148e-07
 Reference value :  5.06118e-07
 Reference value :  5.07100e-07
 Reference value :  5.08379e-07
 Reference value :  5.09807e-07
 Reference value :  5.11739e-07
 Reference value :  5.14069e-07
 Reference value :  5.15916e-07
 Reference value :  5.17905e-07
 Reference value :  5.19991e-07
 Reference value :  5.22394e-07
 Reference value :  5.25104e-07
 Reference value :  5.27935e-07
 Reference value :  5.33189e-07
 Reference value :  5.41575e-07
 Reference value :  5.51296e-07
 Reference value :  5.70738e-07
 Reference value :  6.09623e-07
 Reference value :  6.73427e-07
 Reference value :  7.50100e-07
 Reference value :  7.50110e-07
 Reference value :  7.50130e-07
 Reference value :  7.50170e-07
 Reference value :  7.50200e-07
 Reference value :  7.50201e-07
 Reference value :  7.50202e-07
 Reference value :  7.50205e-07
 Reference value :  7.50211e-07
 Reference value :  7.50224e-07
 Reference value :  7.50248e-07
 Reference value :  7.50297e-07
 Reference value :  7.50395e-07
 Reference value :  7.50590e-07
 Reference value :  7.50977e-07
 Reference value :  7.51389e-07
 Reference value :  7.51911e-07
 Reference value :  7.52518e-07
 Reference value :  7.53316e-07
 Reference value :  7.54225e-07
 Reference value :  7.55414e-07
 Reference value :  7.56519e-07
 Reference value :  7.57522e-07
 Reference value :  7.58609e-07
 Reference value :  7.59816e-07
 Reference value :  7.61113e-07
 Reference value :  7.63557e-07
 Reference value :  7.66725e-07
 Reference value :  7.72290e-07
 Reference value :  7.83420e-07
 Reference value :  8.03447e-07
 Reference value :  8.42149e-07
 Reference value :  9.15413e-07
 Reference value :  1.00000e-06
 Reference value :  1.00001e-06
 Reference value :  1.00003e-06
 Reference value :  1.00007e-06
 Reference value :  1.00010e-06
 Reference value :  1.00010e-06
 Reference value :  1.00011e-06
 Reference value :  1.00013e-06
 Reference value :  1.00016e-06
 Reference value :  1.00023e-06
 Reference value :  1.00036e-06
 Reference value :  1.00054e-06
 Reference value :  1.00089e-06
 Reference value :  1.00151e-06
 Reference value :  1.00220e-06
 Reference value :  1.00282e-06
 Reference value :  1.00346e-06
 Reference value :  1.00415e-06
 Reference value :  1.00499e-06
 Reference value :  1.00587e-06
 Reference value :  1.00672e-06
 Reference value :  1.00777e-06
 Reference value :  1.00888e-06
 Reference value :  1.00997e-06
 Reference value :  1.01100e-06
 Reference value :  1.01243e-06
 Reference value :  1.01413e-06
 Reference value :  1.01684e-06
 Reference value :  1.01885e-06
 Reference value :  1.02101e-06
 Reference value :  1.02262e-06
 Reference value :  1.02414e-06
 Reference value :  1.02558e-06
 Reference value :  1.02714e-06
 Reference value :  1.02887e-06
 Reference value :  1.03113e-06
 Reference value :  1.03350e-06
 Reference value :  1.03815e-06
 Reference value :  1.04458e-06
 Reference value :  1.05583e-06
 Reference value :  1.07396e-06
 Reference value :  1.09985e-06
 Reference value :  1.13934e-06
 Reference value :  1.21715e-06
 Reference value :  1.25010e-06
 Reference value :  1.25011e-06
 Reference value :  1.25013e-06
 Reference value :  1.25017e-06
 Reference value :  1.25020e-06
 Reference value :  1.25020e-06
 Reference value :  1.25020e-06
 Reference value :  1.25021e-06
 Reference value :  1.25021e-06
 Reference value :  1.25022e-06
 Reference value :  1.25025e-06
 Reference value :  1.25029e-06
 Reference value :  1.25039e-06
 Reference value :  1.25058e-06
 Reference value :  1.25092e-06
 Reference value :  1.25135e-06
 Reference value :  1.25187e-06
 Reference value :  1.25248e-06
 Reference value :  1.25324e-06
 Reference value :  1.25412e-06
 Reference value :  1.25531e-06
 Reference value :  1.25621e-06
 Reference value :  1.25716e-06
 Reference value :  1.25824e-06
 Reference value :  1.25979e-06
 Reference value :  1.26124e-06
 Reference value :  1.26376e-06
 Reference value :  1.26673e-06
 Reference value :  1.27221e-06
 Reference value :  1.28319e-06
 Reference value :  1.30281e-06
 Reference value :  1.34205e-06
 Reference value :  1.41663e-06
 Reference value :  1.50000e-06
 Reference value :  1.50001e-06
 Reference value :  1.50003e-06
 Reference value :  1.50007e-06
 Reference value :  1.50010e-06
 Reference value :  1.50010e-06
 Reference value :  1.50011e-06
 Reference value :  1.50013e-06
 Reference value :  1.50016e-06
 Reference value :  1.50023e-06
 Reference value :  1.50036e-06
 Reference value :  1.50053e-06
 Reference value :  1.50087e-06
 Reference value :  1.50145e-06
 Reference value :  1.50221e-06
 Reference value :  1.50288e-06
 Reference value :  1.50356e-06
 Reference value :  1.50426e-06
 Reference value :  1.50525e-06
 Reference value :  1.50620e-06
 Reference value :  1.50718e-06
 Reference value :  1.50863e-06
 Reference value :  1.51001e-06
 Reference value :  1.51130e-06
 Reference value :  1.51269e-06
 Reference value :  1.51421e-06
 Reference value :  1.51589e-06
 Reference value :  1.51744e-06
 Reference value :  1.51949e-06
 Reference value :  1.52170e-06
 Reference value :  1.52556e-06
 Reference value :  1.53142e-06
 Reference value :  1.54166e-06
 Reference value :  1.56066e-06
 Reference value :  1.59414e-06
 Reference value :  1.65796e-06
 Reference value :  1.75010e-06
 Reference value :  1.75011e-06
 Reference value :  1.75013e-06
 Reference value :  1.75017e-06
 Reference value :  1.75020e-06
 Reference value :  1.75020e-06
 Reference value :  1.75020e-06
 Reference value :  1.75021e-06
 Reference value :  1.75021e-06
 Reference value :  1.75022e-06
 Reference value :  1.75025e-06
 Reference value :  1.75029e-06
 Reference value :  1.75039e-06
 Reference value :  1.75058e-06
 Reference value :  1.75092e-06
 Reference value :  1.75135e-06
 Reference value :  1.75187e-06
 Reference value :  1.75248e-06
 Reference value :  1.75324e-06
 Reference value :  1.75411e-06
 Reference value :  1.75529e-06
 Reference value :  1.75619e-06
 Reference value :  1.75714e-06
 Reference value :  1.75818e-06
 Reference value :  1.75931e-06
 Reference value :  1.76052e-06
 Reference value :  1.76295e-06
 Reference value :  1.76558e-06
 Reference value :  1.77020e-06
 Reference value :  1.77854e-06
 Reference value :  1.79522e-06
 Reference value :  1.82859e-06
 Reference value :  1.89349e-06
 Reference value :  2.00000e-06
 Reference value :  2.00001e-06
 Reference value :  2.00003e-06
 Reference value :  2.00007e-06
 Reference value :  2.00010e-06
 Reference value :  2.00010e-06
 Reference value :  2.00011e-06
 Reference value :  2.00013e-06
 Reference value :  2.00016e-06
 Reference value :  2.00023e-06
 Reference value :  2.00036e-06
 Reference value :  2.00053e-06
 Reference value :  2.00087e-06
 Reference value :  2.00145e-06
 Reference value :  2.00221e-06
 Reference value :  2.00288e-06
 Reference value :  2.00356e-06
 Reference value :  2.00427e-06
 Reference value :  2.00525e-06
 Reference value :  2.00603e-06
 Reference value :  2.00686e-06
 Reference value :  2.00785e-06
 Reference value :  2.00893e-06
 Reference value :  2.00992e-06
 Reference value :  2.01096e-06
 Reference value :  2.01237e-06
 Reference value :  2.01398e-06
 Reference value :  2.01628e-06
 Reference value :  2.01849e-06
 Reference value :  2.02053e-06
 Reference value :  2.02215e-06
 Reference value :  2.02370e-06
 Reference value :  2.02530e-06
 Reference value :  2.02697e-06
 Reference value :  2.02890e-06
 Reference value :  2.03082e-06
 Reference value :  2.03342e-06
 Reference value :  2.03795e-06
 Reference value :  2.04535e-06
 Reference value :  2.05946e-06
 Reference value :  2.08107e-06
 Reference value :  2.12216e-06
 Reference value :  2.17375e-06
 Reference value :  2.23602e-06
 Reference value :  2.25010e-06
 Reference value :  2.25011e-06
 Reference value :  2.25013e-06
 Reference value :  2.25017e-06
 Reference value :  2.25020e-06
 Reference value :  2.25020e-06
 Reference value :  2.25020e-06
 Reference value :  2.25021e-06
 Reference value :  2.25021e-06
 Reference value :  2.25022e-06
 Reference value :  2.25025e-06
 Reference value :  2.25029e-06
 Reference value :  2.25039e-06
 Reference value :  2.25058e-06
 Reference value :  2.25092e-06
 Reference value :  2.25135e-06
 Reference value :  2.25187e-06
 Reference value :  2.25248e-06
 Reference value :  2.25324e-06
 Reference value :  2.25411e-06
 Reference value :  2.25531e-06
 Reference value :  2.25620e-06
 Reference value :  2.25715e-06
 Reference value :  2.25824e-06
 Reference value :  2.25979e-06
 Reference value :  2.26124e-06
 Reference value :  2.26377e-06
 Reference value :  2.26673e-06
 Reference value :  2.27220e-06
 Reference value :  2.28315e-06
 Reference value :  2.30258e-06
 Reference value :  2.34144e-06
 Reference value :  2.41493e-06
 Reference value :  2.50000e-06
 Reference value :  2.50001e-06
 Reference value :  2.50003e-06
 Reference value :  2.50007e-06
 Reference value :  2.50010e-06
 Reference value :  2.50010e-06
 Reference value :  2.50011e-06
 Reference value :  2.50013e-06
 Reference value :  2.50016e-06
 Reference value :  2.50023e-06
 Reference value :  2.50036e-06
 Reference value :  2.50053e-06
 Reference value :  2.50087e-06
 Reference value :  2.50145e-06
 Reference value :  2.50221e-06
 Reference value :  2.50288e-06
 Reference value :  2.50355e-06
 Reference value :  2.50426e-06
 Reference value :  2.50524e-06
 Reference value :  2.50619e-06
 Reference value :  2.50718e-06
 Reference value :  2.50862e-06
 Reference value :  2.51001e-06
 Reference value :  2.51130e-06
 Reference value :  2.51267e-06
 Reference value :  2.51419e-06
 Reference value :  2.51586e-06
 Reference value :  2.51743e-06
 Reference value :  2.51963e-06
 Reference value :  2.52192e-06
 Reference value :  2.52610e-06
 Reference value :  2.53241e-06
 Reference value :  2.54342e-06
 Reference value :  2.56408e-06
 Reference value :  2.60017e-06
 Reference value :  2.66933e-06
 Reference value :  2.75010e-06
 Reference value :  2.75011e-06
 Reference value :  2.75013e-06
 Reference value :  2.75017e-06
 Reference value :  2.75020e-06
 Reference value :  2.75020e-06
 Reference value :  2.75020e-06
 Reference value :  2.75021e-06
 Reference value :  2.75021e-06
 Reference value :  2.75022e-06
 Reference value :  2.75025e-06
 Reference value :  2.75029e-06
 Reference value :  2.75039e-06
 Reference value :  2.75058e-06
 Reference value :  2.75092e-06
 Reference value :  2.75134e-06
 Reference value :  2.75187e-06
 Reference value :  2.75248e-06
 Reference value :  2.75323e-06
 Reference value :  2.75411e-06
 Reference value :  2.75529e-06
 Reference value :  2.75619e-06
 Reference value :  2.75714e-06
 Reference value :  2.75818e-06
 Reference value :  2.75930e-06
 Reference value :  2.76052e-06
 Reference value :  2.76294e-06
 Reference value :  2.76557e-06
 Reference value :  2.77017e-06
 Reference value :  2.77848e-06
 Reference value :  2.79509e-06
 Reference value :  2.82831e-06
 Reference value :  2.89281e-06
 Reference value :  3.00000e-06
 Reference value :  3.00001e-06
 Reference value :  3.00003e-06
 Reference value :  3.00007e-06
 Reference value :  3.00010e-06
 Reference value :  3.00010e-06
 Reference value :  3.00011e-06
 Reference value :  3.00013e-06
 Reference value :  3.00016e-06
 Reference value :  3.00023e-06
 Reference value :  3.00036e-06
 Reference value :  3.00053e-06
 Reference value :  3.00087e-06
 Reference value :  3.00145e-06
 Reference value :  3.00221e-06
 Reference value :  3.00288e-06
 Reference value :  3.00356e-06
 Reference value :  3.00426e-06
 Reference value :  3.00525e-06
 Reference value :  3.00603e-06
 Reference value :  3.00685e-06
 Reference value :  3.00785e-06
 Reference value :  3.00892e-06
 Reference value :  3.01001e-06
 Reference value :  3.01102e-06
 Reference value :  3.01246e-06
 Reference value :  3.01411e-06
 Reference value :  3.01671e-06
 Reference value :  3.01868e-06
 Reference value :  3.02078e-06
 Reference value :  3.02212e-06
 Reference value :  3.02351e-06
 Reference value :  3.02483e-06
 Reference value :  3.02632e-06
 Reference value :  3.02822e-06
 Reference value :  3.02996e-06
 Reference value :  3.03279e-06
 Reference value :  3.03605e-06
 Reference value :  3.04257e-06
 Reference value :  3.05460e-06
 Reference value :  3.07459e-06
 Reference value :  3.09404e-06
 Reference value :  3.10774e-06
 Reference value :  3.12074e-06
 Reference value :  3.13465e-06
 Reference value :  3.14384e-06
 Reference value :  3.15515e-06
 Reference value :  3.17379e-06
 Reference value :  3.19556e-06
 Reference value :  3.23233e-06
 Reference value :  3.25010e-06
 Reference value :  3.25011e-06
 Reference value :  3.25013e-06
 Reference value :  3.25017e-06
 Reference value :  3.25020e-06
 Reference value :  3.25020e-06
 Reference value :  3.25020e-06
 Reference value :  3.25021e-06
 Reference value :  3.25021e-06
 Reference value :  3.25022e-06
 Reference value :  3.25025e-06
 Reference value :  3.25029e-06
 Reference value :  3.25039e-06
 Reference value :  3.25058e-06
 Reference value :  3.25092e-06
 Reference value :  3.25135e-06
 Reference value :  3.25187e-06
 Reference value :  3.25248e-06
 Reference value :  3.25323e-06
 Reference value :  3.25411e-06
 Reference value :  3.25524e-06
 Reference value :  3.25616e-06
 Reference value :  3.25712e-06
 Reference value :  3.25819e-06
 Reference value :  3.25976e-06
 Reference value :  3.26128e-06
 Reference value :  3.26377e-06
 Reference value :  3.26672e-06
 Reference value :  3.27207e-06
 Reference value :  3.28276e-06
 Reference value :  3.30174e-06
 Reference value :  3.32119e-06
 Reference value :  3.33561e-06
 Reference value :  3.34951e-06
 Reference value :  3.36317e-06
 Reference value :  3.37692e-06
 Reference value :  3.38969e-06
 Reference value :  3.41173e-06
 Reference value :  3.44384e-06
 Reference value :  3.49540e-06
 Reference value :  3.50000e-06
 Reference value :  3.50001e-06
 Reference value :  3.50003e-06
 Reference value :  3.50007e-06
 Reference value :  3.50010e-06
 Reference value :  3.50010e-06
 Reference value :  3.50011e-06
 Reference value :  3.50013e-06
 Reference value :  3.50016e-06
 Reference value :  3.50023e-06
 Reference value :  3.50036e-06
 Reference value :  3.50053e-06
 Reference value :  3.50087e-06
 Reference value :  3.50144e-06
 Reference value :  3.50221e-06
 Reference value :  3.50289e-06
 Reference value :  3.50356e-06
 Reference value :  3.50427e-06
 Reference value :  3.50525e-06
 Reference value :  3.50620e-06
 Reference value :  3.50718e-06
 Reference value :  3.50864e-06
 Reference value :  3.51001e-06
 Reference value :  3.51130e-06
 Reference value :  3.51267e-06
 Reference value :  3.51419e-06
 Reference value :  3.51586e-06
 Reference value :  3.51770e-06
 Reference value :  3.51969e-06
 Reference value :  3.52366e-06
 Reference value :  3.52998e-06
 Reference value :  3.54260e-06
 Reference value :  3.56625e-06
 Reference value :  3.60933e-06
 Reference value :  3.69549e-06
 Reference value :  3.75010e-06
 Reference value :  3.75011e-06
 Reference value :  3.75013e-06
 Reference value :  3.75017e-06
 Reference value :  3.75020e-06
 Reference value :  3.75020e-06
 Reference value :  3.75020e-06
 Reference value :  3.75021e-06
 Reference value :  3.75021e-06
 Reference value :  3.75022e-06
 Reference value :  3.75025e-06
 Reference value :  3.75030e-06
 Reference value :  3.75039e-06
 Reference value :  3.75059e-06
 Reference value :  3.75094e-06
 Reference value :  3.75136e-06
 Reference value :  3.75188e-06
 Reference value :  3.75249e-06
 Reference value :  3.75325e-06
 Reference value :  3.75413e-06
 Reference value :  3.75531e-06
 Reference value :  3.75622e-06
 Reference value :  3.75719e-06
 Reference value :  3.75822e-06
 Reference value :  3.75933e-06
 Reference value :  3.76055e-06
 Reference value :  3.76299e-06
 Reference value :  3.76565e-06
 Reference value :  3.77030e-06
 Reference value :  3.77875e-06
 Reference value :  3.79565e-06
 Reference value :  3.82918e-06
 Reference value :  3.89425e-06
 Reference value :  4.00000e-06
 Reference value :  4.00001e-06
 Reference value :  4.00003e-06
 Reference value :  4.00007e-06
 Reference value :  4.00010e-06
 Reference value :  4.00010e-06
 Reference value :  4.00011e-06
 Reference value :  4.00013e-06
 Reference value :  4.00016e-06
 Reference value :  4.00023e-06
 Reference value :  4.00036e-06
 Reference value :  4.00053e-06
 Reference value :  4.00087e-06
 Reference value :  4.00145e-06
 Reference value :  4.00221e-06
 Reference value :  4.00288e-06
 Reference value :  4.00356e-06
 Reference value :  4.00426e-06
 Reference value :  4.00525e-06
 Reference value :  4.00603e-06
 Reference value :  4.00685e-06
 Reference value :  4.00784e-06
 Reference value :  4.00892e-06
 Reference value :  4.00993e-06
 Reference value :  4.01098e-06
 Reference value :  4.01233e-06
 Reference value :  4.01406e-06
 Reference value :  4.01669e-06
 Reference value :  4.01868e-06
 Reference value :  4.02081e-06
 Reference value :  4.02232e-06
 Reference value :  4.02380e-06
 Reference value :  4.02519e-06
 Reference value :  4.02678e-06
 Reference value :  4.02843e-06
 Reference value :  4.03064e-06
 Reference value :  4.03290e-06
 Reference value :  4.03740e-06
 Reference value :  4.04396e-06
 Reference value :  4.05157e-06
 Reference value :  4.05668e-06
 Reference value :  4.06202e-06
 Reference value :  4.06879e-06
 Reference value :  4.07531e-06
 Reference value :  4.08135e-06
 Reference value :  4.08870e-06
 Reference value :  4.09832e-06
 Reference value :  4.11268e-06
 Reference value :  4.13155e-06
 Reference value :  4.15366e-06
 Reference value :  4.17644e-06
 Reference value :  4.20765e-06
 Reference value :  4.24795e-06
 Reference value :  4.25010e-06
 Reference value :  4.25011e-06
 Reference value :  4.25013e-06
 Reference value :  4.25017e-06
 Reference value :  4.25020e-06
 Reference value :  4.25020e-06
 Reference value :  4.25020e-06
 Reference value :  4.25021e-06
 Reference value :  4.25021e-06
 Reference value :  4.25022e-06
 Reference value :  4.25025e-06
 Reference value :  4.25030e-06
 Reference value :  4.25039e-06
 Reference value :  4.25059e-06
 Reference value :  4.25093e-06
 Reference value :  4.25136e-06
 Reference value :  4.25188e-06
 Reference value :  4.25249e-06
 Reference value :  4.25325e-06
 Reference value :  4.25413e-06
 Reference value :  4.25526e-06
 Reference value :  4.25621e-06
 Reference value :  4.25719e-06
 Reference value :  4.25827e-06
 Reference value :  4.25986e-06
 Reference value :  4.26146e-06
 Reference value :  4.26392e-06
 Reference value :  4.26703e-06
 Reference value :  4.27249e-06
 Reference value :  4.28341e-06
 Reference value :  4.30240e-06
 Reference value :  4.33988e-06
 Reference value :  4.41217e-06
 Reference value :  4.50000e-06
 Reference value :  4.50001e-06
 Reference value :  4.50003e-06
 Reference value :  4.50007e-06
 Reference value :  4.50010e-06
 Reference value :  4.50010e-06
 Reference value :  4.50011e-06
 Reference value :  4.50013e-06
 Reference value :  4.50016e-06
 Reference value :  4.50023e-06
 Reference value :  4.50036e-06
 Reference value :  4.50053e-06
 Reference value :  4.50087e-06
 Reference value :  4.50145e-06
 Reference value :  4.50221e-06
 Reference value :  4.50284e-06
 Reference value :  4.50350e-06
 Reference value :  4.50419e-06
 Reference value :  4.50515e-06
 Reference value :  4.50611e-06
 Reference value :  4.50705e-06
 Reference value :  4.50854e-06
 Reference value :  4.50989e-06
 Reference value :  4.51119e-06
 Reference value :  4.51260e-06
 Reference value :  4.51393e-06
 Reference value :  4.51546e-06
 Reference value :  4.51706e-06
 Reference value :  4.51881e-06
 Reference value :  4.52230e-06
 Reference value :  4.52930e-06
 Reference value :  4.54113e-06
 Reference value :  4.56480e-06
 Reference value :  4.60922e-06
 Reference value :  4.69806e-06
 Reference value :  4.75010e-06
 Reference value :  4.75011e-06
 Reference value :  4.75013e-06
 Reference value :  4.75017e-06
 Reference value :  4.75020e-06
 Reference value :  4.75020e-06
 Reference value :  4.75020e-06
 Reference value :  4.75021e-06
 Reference value :  4.75021e-06
 Reference value :  4.75022e-06
 Reference value :  4.75025e-06
 Reference value :  4.75030e-06
 Reference value :  4.75039e-06
 Reference value :  4.75059e-06
 Reference value :  4.75093e-06
 Reference value :  4.75136e-06
 Reference value :  4.75188e-06
 Reference value :  4.75249e-06
 Reference value :  4.75325e-06
 Reference value :  4.75413e-06
 Reference value :  4.75531e-06
 Reference value :  4.75623e-06
 Reference value :  4.75720e-06
 Reference value :  4.75822e-06
 Reference value :  4.75933e-06
 Reference value :  4.76056e-06
 Reference value :  4.76184e-06
 Reference value :  4.76324e-06
 Reference value :  4.76537e-06
 Reference value :  4.76769e-06
 Reference value :  4.77130e-06
 Reference value :  4.77700e-06
 Reference value :  4.78841e-06
 Reference value :  4.81121e-06
 Reference value :  4.85645e-06
 Reference value :  4.94695e-06
 Reference value :  5.00000e-06
 Reference value :  5.00001e-06
 Reference value :  5.00003e-06
 Reference value :  5.00007e-06
 Reference value :  5.00010e-06
 Reference value :  5.00010e-06
 Reference value :  5.00011e-06
 Reference value :  5.00013e-06
 Reference value :  5.00016e-06
 Reference value :  5.00023e-06
 Reference value :  5.00036e-06
 Reference value :  5.00053e-06
 Reference value :  5.00087e-06
 Reference value :  5.00144e-06
 Reference value :  5.00221e-06
 Reference value :  5.00288e-06
 Reference value :  5.00356e-06
 Reference value :  5.00427e-06
 Reference value :  5.00524e-06
 Reference value :  5.00602e-06
 Reference value :  5.00684e-06
 Reference value :  5.00781e-06
 Reference value :  5.00872e-06
 Reference value :  5.00969e-06
 Reference value :  5.01066e-06
 Reference value :  5.01191e-06
 Reference value :  5.01360e-06
 Reference value :  5.01482e-06
 Reference value :  5.01620e-06
 Reference value :  5.01763e-06
 Reference value :  5.01926e-06
 Reference value :  5.02108e-06
 Reference value :  5.02256e-06
 Reference value :  5.02411e-06
 Reference value :  5.02556e-06
 Reference value :  5.02712e-06
 Reference value :  5.02885e-06
 Reference value :  5.03106e-06
 Reference value :  5.03341e-06
 Reference value :  5.03684e-06
 Reference value :  5.04161e-06
 Reference value :  5.04606e-06
 Reference value :  5.04918e-06
 Reference value :  5.05219e-06
 Reference value :  5.05475e-06
 Reference value :  5.05799e-06
 Reference value :  5.06294e-06
 Reference value :  5.06851e-06
 Reference value :  5.07729e-06
 Reference value :  5.08778e-06
 Reference value :  5.09919e-06
 Reference value :  5.11393e-06
 Reference value :  5.13468e-06
 Reference value :  5.17163e-06
 Reference value :  5.22157e-06
 Reference value :  5.25010e-06
 Reference value :  5.25011e-06
 Reference value :  5.25013e-06
 Reference value :  5.25017e-06
 Reference value :  5.25020e-06
 Reference value :  5.25020e-06
 Reference value :  5.25020e-06
 Reference value :  5.25021e-06
 Reference value :  5.25021e-06
 Reference value :  5.25022e-06
 Reference value :  5.25025e-06
 Reference value :  5.25030e-06
 Reference value :  5.25039e-06
 Reference value :  5.25059e-06
 Reference value :  5.25094e-06
 Reference value :  5.25136e-06
 Reference value :  5.25188e-06
 Reference value :  5.25249e-06
 Reference value :  5.25326e-06
 Reference value :  5.25413e-06
 Reference value :  5.25530e-06
 Reference value :  5.25620e-06
 Reference value :  5.25715e-06
 Reference value :  5.25821e-06
 Reference value :  5.25979e-06
 Reference value :  5.26124e-06
 Reference value :  5.26376e-06
 Reference value :  5.26671e-06
 Reference value :  5.27217e-06
 Reference value :  5.27990e-06
 Reference value :  5.29538e-06
 Reference value :  5.31195e-06
 Reference value :  5.33240e-06
 Reference value :  5.34801e-06
 Reference value :  5.36463e-06
 Reference value :  5.38546e-06
 Reference value :  5.42712e-06
 Reference value :  5.48414e-06
 Reference value :  5.50000e-06
 Reference value :  5.50001e-06
 Reference value :  5.50003e-06
 Reference value :  5.50007e-06
 Reference value :  5.50010e-06
 Reference value :  5.50010e-06
 Reference value :  5.50011e-06
 Reference value :  5.50013e-06
 Reference value :  5.50016e-06
 Reference value :  5.50023e-06
 Reference value :  5.50036e-06
 Reference value :  5.50053e-06
 Reference value :  5.50087e-06
 Reference value :  5.50144e-06
 Reference value :  5.50221e-06
 Reference value :  5.50284e-06
 Reference value :  5.50351e-06
 Reference value :  5.50420e-06
 Reference value :  5.50516e-06
 Reference value :  5.50613e-06
 Reference value :  5.50707e-06
 Reference value :  5.50857e-06
 Reference value :  5.50993e-06
 Reference value :  5.51121e-06
 Reference value :  5.51258e-06
 Reference value :  5.51385e-06
 Reference value :  5.51533e-06
 Reference value :  5.51684e-06
 Reference value :  5.51854e-06
 Reference value :  5.52193e-06
 Reference value :  5.52872e-06
 Reference value :  5.54039e-06
 Reference value :  5.56373e-06
 Reference value :  5.60792e-06
 Reference value :  5.69628e-06
 Reference value :  5.75010e-06
 Reference value :  5.75011e-06
 Reference value :  5.75013e-06
 Reference value :  5.75017e-06
 Reference value :  5.75020e-06
 Reference value :  5.75020e-06
 Reference value :  5.75020e-06
 Reference value :  5.75021e-06
 Reference value :  5.75021e-06
 Reference value :  5.75022e-06
 Reference value :  5.75025e-06
 Reference value :  5.75030e-06
 Reference value :  5.75039e-06
 Reference value :  5.75059e-06
 Reference value :  5.75094e-06
 Reference value :  5.75136e-06
 Reference value :  5.75188e-06
 Reference value :  5.75249e-06
 Reference value :  5.75326e-06
 Reference value :  5.75413e-06
 Reference value :  5.75531e-06
 Reference value :  5.75623e-06
 Reference value :  5.75720e-06
 Reference value :  5.75823e-06
 Reference value :  5.75934e-06
 Reference value :  5.76058e-06
 Reference value :  5.76186e-06
 Reference value :  5.76326e-06
 Reference value :  5.76539e-06
 Reference value :  5.76771e-06
 Reference value :  5.77134e-06
 Reference value :  5.77706e-06
 Reference value :  5.78850e-06
 Reference value :  5.81139e-06
 Reference value :  5.85694e-06
 Reference value :  5.94804e-06
 Reference value :  6.00000e-06
 Reference value :  6.00001e-06
 Reference value :  6.00003e-06
 Reference value :  6.00007e-06
 Reference value :  6.00010e-06
 Reference value :  6.00010e-06
 Reference value :  6.00011e-06
 Reference value :  6.00013e-06
 Reference value :  6.00016e-06
 Reference value :  6.00023e-06
 Reference value :  6.00036e-06
 Reference value :  6.00053e-06
 Reference value :  6.00087e-06
 Reference value :  6.00144e-06
 Reference value :  6.00221e-06
 Reference value :  6.00288e-06
 Reference value :  6.00356e-06
 Reference value :  6.00427e-06
 Reference value :  6.00514e-06
 Reference value :  6.00590e-06
 Reference value :  6.00673e-06
 Reference value :  6.00781e-06
 Reference value :  6.00879e-06
 Reference value :  6.00970e-06
 Reference value :  6.01079e-06
 Reference value :  6.01200e-06
 Reference value :  6.01369e-06
 Reference value :  6.01498e-06
 Reference value :  6.01635e-06
 Reference value :  6.01776e-06
 Reference value :  6.01939e-06
 Reference value :  6.02111e-06
 Reference value :  6.02223e-06
 Reference value :  6.02349e-06
 Reference value :  6.02469e-06
 Reference value :  6.02604e-06
 Reference value :  6.02754e-06
 Reference value :  6.02904e-06
 Reference value :  6.03128e-06
 Reference value :  6.03284e-06
 Reference value :  6.03456e-06
 Reference value :  6.03704e-06
 Reference value :  6.03945e-06
 Reference value :  6.04192e-06
 Reference value :  6.04688e-06
 Reference value :  6.05336e-06
 Reference value :  6.05965e-06
 Reference value :  6.06635e-06
 Reference value :  6.07451e-06
 Reference value :  6.08742e-06
 Reference value :  6.10731e-06
 Reference value :  6.14707e-06
 Reference value :  6.21610e-06
 Reference value :  6.25010e-06
 Reference value :  6.25011e-06
 Reference value :  6.25013e-06
 Reference value :  6.25017e-06
 Reference value :  6.25020e-06
 Reference value :  6.25020e-06
 Reference value :  6.25020e-06
 Reference value :  6.25021e-06
 Reference value :  6.25021e-06
 Reference value :  6.25022e-06
 Reference value :  6.25025e-06
 Reference value :  6.25030e-06
 Reference value :  6.25039e-06
 Reference value :  6.25059e-06
 Reference value :  6.25094e-06
 Reference value :  6.25136e-06
 Reference value :  6.25188e-06
 Reference value :  6.25249e-06
 Reference value :  6.25326e-06
 Reference value :  6.25413e-06
 Reference value :  6.25532e-06
 Reference value :  6.25622e-06
 Reference value :  6.25718e-06
 Reference value :  6.25825e-06
 Reference value :  6.25982e-06
 Reference value :  6.26127e-06
 Reference value :  6.26378e-06
 Reference value :  6.26677e-06
 Reference value :  6.27229e-06
 Reference value :  6.28334e-06
 Reference value :  6.30231e-06
 Reference value :  6.34025e-06
 Reference value :  6.41068e-06
 Reference value :  6.50000e-06
 Reference value :  6.50001e-06
 Reference value :  6.50003e-06
 Reference value :  6.50007e-06
 Reference value :  6.50010e-06
 Reference value :  6.50010e-06
 Reference value :  6.50011e-06
 Reference value :  6.50013e-06
 Reference value :  6.50016e-06
 Reference value :  6.50023e-06
 Reference value :  6.50036e-06
 Reference value :  6.50053e-06
 Reference value :  6.50087e-06
 Reference value :  6.50145e-06
 Reference value :  6.50221e-06
 Reference value :  6.50288e-06
 Reference value :  6.50356e-06
 Reference value :  6.50426e-06
 Reference value :  6.50524e-06
 Reference value :  6.50618e-06
 Reference value :  6.50715e-06
 Reference value :  6.50858e-06
 Reference value :  6.50996e-06
 Reference value :  6.51125e-06
 Reference value :  6.51264e-06
 Reference value :  6.51391e-06
 Reference value :  6.51541e-06
 Reference value :  6.51692e-06
 Reference value :  6.51864e-06
 Reference value :  6.52206e-06
 Reference value :  6.52892e-06
 Reference value :  6.54050e-06
 Reference value :  6.56368e-06
 Reference value :  6.60719e-06
 Reference value :  6.68857e-06
 Reference value :  6.75010e-06
 Reference value :  6.75011e-06
 Reference value :  6.75013e-06
 Reference value :  6.75017e-06
 Reference value :  6.75020e-06
 Reference value :  6.75020e-06
 Reference value :  6.75020e-06
 Reference value :  6.75021e-06
 Reference value :  6.75021e-06
 Reference value :  6.75022e-06
 Reference value :  6.75025e-06
 Reference value :  6.75030e-06
 Reference value :  6.75039e-06
 Reference value :  6.75059e-06
 Reference value :  6.75094e-06
 Reference value :  6.75136e-06
 Reference value :  6.75188e-06
 Reference value :  6.75249e-06
 Reference value :  6.75326e-06
 Reference value :  6.75413e-06
 Reference value :  6.75531e-06
 Reference value :  6.75623e-06
 Reference value :  6.75720e-06
 Reference value :  6.75822e-06
 Reference value :  6.75933e-06
 Reference value :  6.76057e-06
 Reference value :  6.76299e-06
 Reference value :  6.76567e-06
 Reference value :  6.77033e-06
 Reference value :  6.77886e-06
 Reference value :  6.79593e-06
 Reference value :  6.82911e-06
 Reference value :  6.89521e-06
 Reference value :  7.00000e-06
 Reference value :  7.00001e-06
 Reference value :  7.00003e-06
 Reference value :  7.00007e-06
 Reference value :  7.00010e-06
 Reference value :  7.00010e-06
 Reference value :  7.00011e-06
 Reference value :  7.00013e-06
 Reference value :  7.00016e-06
 Reference value :  7.00023e-06
 Reference value :  7.00036e-06
 Reference value :  7.00053e-06
 Reference value :  7.00087e-06
 Reference value :  7.00145e-06
 Reference value :  7.00221e-06
 Reference value :  7.00288e-06
 Reference value :  7.00356e-06
 Reference value :  7.00427e-06
 Reference value :  7.00525e-06
 Reference value :  7.00603e-06
 Reference value :  7.00685e-06
 Reference value :  7.00784e-06
 Reference value :  7.00870e-06
 Reference value :  7.00964e-06
 Reference value :  7.01062e-06
 Reference value :  7.01183e-06
 Reference value :  7.01358e-06
 Reference value :  7.01607e-06
 Reference value :  7.01835e-06
 Reference value :  7.02069e-06
 Reference value :  7.02243e-06
 Reference value :  7.02407e-06
 Reference value :  7.02577e-06
 Reference value :  7.02754e-06
 Reference value :  7.02950e-06
 Reference value :  7.03172e-06
 Reference value :  7.03417e-06
 Reference value :  7.03891e-06
 Reference value :  7.04212e-06
 Reference value :  7.04538e-06
 Reference value :  7.04921e-06
 Reference value :  7.05475e-06
 Reference value :  7.06154e-06
 Reference value :  7.06662e-06
 Reference value :  7.07213e-06
 Reference value :  7.08034e-06
 Reference value :  7.08885e-06
 Reference value :  7.10268e-06
 Reference value :  7.12077e-06
 Reference value :  7.14724e-06
 Reference value :  7.19068e-06
 Reference value :  7.24311e-06
 Reference value :  7.25010e-06
 Reference value :  7.25011e-06
 Reference value :  7.25013e-06
 Reference value :  7.25017e-06
 Reference value :  7.25020e-06
 Reference value :  7.25020e-06
 Reference value :  7.25020e-06
 Reference value :  7.25021e-06
 Reference value :  7.25021e-06
 Reference value :  7.25022e-06
 Reference value :  7.25025e-06
 Reference value :  7.25029e-06
 Reference value :  7.25039e-06
 Reference value :  7.25058e-06
 Reference value :  7.25092e-06
 Reference value :  7.25135e-06
 Reference value :  7.25187e-06
 Reference value :  7.25248e-06
 Reference value :  7.25324e-06
 Reference value :  7.25412e-06
 Reference value :  7.25525e-06
 Reference value :  7.25629e-06
 Reference value :  7.25726e-06
 Reference value :  7.25842e-06
 Reference value :  7.25994e-06
 Reference value :  7.26173e-06
 Reference value :  7.26403e-06
 Reference value :  7.26749e-06
 Reference value :  7.27315e-06
 Reference value :  7.28447e-06
 Reference value :  7.30418e-06
 Reference value :  7.31858e-06
 Reference value :  7.33648e-06
 Reference value :  7.35429e-06
 Reference value :  7.37344e-06
 Reference value :  7.40429e-06
 Reference value :  7.45958e-06
 Reference value :  7.50000e-06
 Reference value :  7.50001e-06
 Reference value :  7.50003e-06
 Reference value :  7.50007e-06
 Reference value :  7.50010e-06
 Reference value :  7.50010e-06
 Reference value :  7.50011e-06
 Reference value :  7.50013e-06
 Reference value :  7.50016e-06
 Reference value :  7.50023e-06
 Reference value :  7.50036e-06
 Reference value :  7.50053e-06
 Reference value :  7.50087e-06
 Reference value :  7.50150e-06
 Reference value :  7.50218e-06
 Reference value :  7.50280e-06
 Reference value :  7.50345e-06
 Reference value :  7.50413e-06
 Reference value :  7.50511e-06
 Reference value :  7.50600e-06
 Reference value :  7.50700e-06
 Reference value :  7.50825e-06
 Reference value :  7.50971e-06
 Reference value :  7.51114e-06
 Reference value :  7.51266e-06
 Reference value :  7.51421e-06
 Reference value :  7.51594e-06
 Reference value :  7.51797e-06
 Reference value :  7.51984e-06
 Reference value :  7.52358e-06
 Reference value :  7.53020e-06
 Reference value :  7.54047e-06
 Reference value :  7.56100e-06
 Reference value :  7.59752e-06
 Reference value :  7.66658e-06
 Reference value :  7.75010e-06
 Reference value :  7.75011e-06
 Reference value :  7.75013e-06
 Reference value :  7.75017e-06
 Reference value :  7.75020e-06
 Reference value :  7.75020e-06
 Reference value :  7.75020e-06
 Reference value :  7.75021e-06
 Reference value :  7.75021e-06
 Reference value :  7.75022e-06
 Reference value :  7.75025e-06
 Reference value :  7.75030e-06
 Reference value :  7.75039e-06
 Reference value :  7.75059e-06
 Reference value :  7.75094e-06
 Reference value :  7.75136e-06
 Reference value :  7.75188e-06
 Reference value :  7.75249e-06
 Reference value :  7.75326e-06
 Reference value :  7.75414e-06
 Reference value :  7.75530e-06
 Reference value :  7.75626e-06
 Reference value :  7.75725e-06
 Reference value :  7.75827e-06
 Reference value :  7.75939e-06
 Reference value :  7.76063e-06
 Reference value :  7.76303e-06
 Reference value :  7.76582e-06
 Reference value :  7.77058e-06
 Reference value :  7.77960e-06
 Reference value :  7.79765e-06
 Reference value :  7.83075e-06
 Reference value :  7.89667e-06
 Reference value :  8.00000e-06
 Reference value :  8.00001e-06
 Reference value :  8.00003e-06
 Reference value :  8.00007e-06
 Reference value :  8.00010e-06
 Reference value :  8.00010e-06
 Reference value :  8.00011e-06
 Reference value :  8.00013e-06
 Reference value :  8.00016e-06
 Reference value :  8.00023e-06
 Reference value :  8.00036e-06
 Reference value :  8.00053e-06
 Reference value :  8.00087e-06
 Reference value :  8.00150e-06
 Reference value :  8.00218e-06
 Reference value :  8.00280e-06
 Reference value :  8.00345e-06
 Reference value :  8.00414e-06
 Reference value :  8.00499e-06
 Reference value :  8.00588e-06
 Reference value :  8.00668e-06
 Reference value :  8.00785e-06
 Reference value :  8.00890e-06
 Reference value :  8.00986e-06
 Reference value :  8.01097e-06
 Reference value :  8.01224e-06
 Reference value :  8.01410e-06
 Reference value :  8.01643e-06
 Reference value :  8.01889e-06
 Reference value :  8.02167e-06
 Reference value :  8.02428e-06
 Reference value :  8.02731e-06
 Reference value :  8.03336e-06
 Reference value :  8.04289e-06
 Reference value :  8.06071e-06
 Reference value :  8.09587e-06
 Reference value :  8.16617e-06
 Reference value :  8.25010e-06
 Reference value :  8.25011e-06
 Reference value :  8.25013e-06
 Reference value :  8.25017e-06
 Reference value :  8.25020e-06
 Reference value :  8.25020e-06
 Reference value :  8.25020e-06
 Reference value :  8.25021e-06
 Reference value :  8.25021e-06
 Reference value :  8.25022e-06
 Reference value :  8.25025e-06
 Reference value :  8.25030e-06
 Reference value :  8.25039e-06
 Reference value :  8.25059e-06
 Reference value :  8.25098e-06
 Reference value :  8.25139e-06
 Reference value :  8.25189e-06
 Reference value :  8.25250e-06
 Reference value :  8.25330e-06
 Reference value :  8.25418e-06
 Reference value :  8.25526e-06
 Reference value :  8.25645e-06
 Reference value :  8.25784e-06
 Reference value :  8.25942e-06
 Reference value :  8.26126e-06
 Reference value :  8.26400e-06
 Reference value :  8.26674e-06
 Reference value :  8.27190e-06
 Reference value :  8.28222e-06
 Reference value :  8.29893e-06
 Reference value :  8.33229e-06
 Reference value :  8.39116e-06
 Reference value :  8.50000e-06
 Reference value :  8.50000e-06
 Reference value :  8.50000e-06
 Reference value :  8.50000e-06
 Reference value :  8.50000e-06
 Reference value :  8.50000e-06
 Reference value :  8.50000e-06
 Reference value :  8.50000e-06
 Reference value :  8.50000e-06
 Reference value :  8.50001e-06
 Reference value :  8.50001e-06
 Reference value :  8.50002e-06
 Reference value :  8.50004e-06
 Reference value :  8.50008e-06
 Reference value :  8.50010e-06
 Reference value :  8.50010e-06
 Reference value :  8.50011e-06
 Reference value :  8.50012e-06
 Reference value :  8.50014e-06
 Reference value :  8.50018e-06
 Reference value :  8.50026e-06
 Reference value :  8.50043e-06
 Reference value :  8.50077e-06
 Reference value :  8.50124e-06
 Reference value :  8.50211e-06
 Reference value :  8.50295e-06
 Reference value :  8.50360e-06
 Reference value :  8.50441e-06
 Reference value :  8.50523e-06
 Reference value :  8.50622e-06
 Reference value :  8.50737e-06
 Reference value :  8.50865e-06
 Reference value :  8.51072e-06
 Reference value :  8.51234e-06
 Reference value :  8.51406e-06
 Reference value :  8.51588e-06
 Reference value :  8.51780e-06
 Reference value :  8.52005e-06
 Reference value :  8.52272e-06
 Reference value :  8.52806e-06
 Reference value :  8.53297e-06
 Reference value :  8.53675e-06
 Reference value :  8.54018e-06
 Reference value :  8.54302e-06
 Reference value :  8.54562e-06
 Reference value :  8.54775e-06
 Reference value :  8.54986e-06
 Reference value :  8.55158e-06
 Reference value :  8.55341e-06
 Reference value :  8.55617e-06
 Reference value :  8.55883e-06
 Reference value :  8.56175e-06
 Reference value :  8.56657e-06
 Reference value :  8.57180e-06
 Reference value :  8.58226e-06
 Reference value :  8.59575e-06
 Reference value :  8.60633e-06
 Reference value :  8.61876e-06
 Reference value :  8.63233e-06
 Reference value :  8.65307e-06
 Reference value :  8.67800e-06
 Reference value :  8.71590e-06
 Reference value :  8.75010e-06
 Reference value :  8.75011e-06
 Reference value :  8.75013e-06
 Reference value :  8.75017e-06
 Reference value :  8.75020e-06
 Reference value :  8.75020e-06
 Reference value :  8.75020e-06
 Reference value :  8.75021e-06
 Reference value :  8.75021e-06
 Reference value :  8.75022e-06
 Reference value :  8.75025e-06
 Reference value :  8.75030e-06
 Reference value :  8.75039e-06
 Reference value :  8.75058e-06
 Reference value :  8.75096e-06
 Reference value :  8.75137e-06
 Reference value :  8.75190e-06
 Reference value :  8.75251e-06
 Reference value :  8.75330e-06
 Reference value :  8.75419e-06
 Reference value :  8.75539e-06
 Reference value :  8.75635e-06
 Reference value :  8.75735e-06
 Reference value :  8.75844e-06
 Reference value :  8.76001e-06
 Reference value :  8.76158e-06
 Reference value :  8.76398e-06
 Reference value :  8.76732e-06
 Reference value :  8.77341e-06
 Reference value :  8.78558e-06
 Reference value :  8.80545e-06
 Reference value :  8.84518e-06
 Reference value :  8.91616e-06
 Reference value :  9.00000e-06
 Reference value :  9.00001e-06
 Reference value :  9.00003e-06
 Reference value :  9.00007e-06
 Reference value :  9.00010e-06
 Reference value :  9.00010e-06
 Reference value :  9.00011e-06
 Reference value :  9.00013e-06
 Reference value :  9.00016e-06
 Reference value :  9.00023e-06
 Reference value :  9.00036e-06
 Reference value :  9.00054e-06
 Reference value :  9.00089e-06
 Reference value :  9.00151e-06
 Reference value :  9.00220e-06
 Reference value :  9.00282e-06
 Reference value :  9.00350e-06
 Reference value :  9.00421e-06
 Reference value :  9.00519e-06
 Reference value :  9.00613e-06
 Reference value :  9.00711e-06
 Reference value :  9.00846e-06
 Reference value :  9.00985e-06
 Reference value :  9.01176e-06
 Reference value :  9.01407e-06
 Reference value :  9.01592e-06
 Reference value :  9.01789e-06
 Reference value :  9.01996e-06
 Reference value :  9.02229e-06
 Reference value :  9.02490e-06
 Reference value :  9.02763e-06
 Reference value :  9.03268e-06
 Reference value :  9.04109e-06
 Reference value :  9.05067e-06
 Reference value :  9.06981e-06
 Reference value :  9.10811e-06
 Reference value :  9.17187e-06
 Reference value :  9.25010e-06
 Reference value :  9.25011e-06
 Reference value :  9.25013e-06
 Reference value :  9.25017e-06
 Reference value :  9.25020e-06
 Reference value :  9.25020e-06
 Reference value :  9.25020e-06
 Reference value :  9.25021e-06
 Reference value :  9.25021e-06
 Reference value :  9.25022e-06
 Reference value :  9.25025e-06
 Reference value :  9.25030e-06
 Reference value :  9.25039e-06
 Reference value :  9.25059e-06
 Reference value :  9.25098e-06
 Reference value :  9.25139e-06
 Reference value :  9.25191e-06
 Reference value :  9.25252e-06
 Reference value :  9.25332e-06
 Reference value :  9.25422e-06
 Reference value :  9.25541e-06
 Reference value :  9.25650e-06
 Reference value :  9.25751e-06
 Reference value :  9.25859e-06
 Reference value :  9.25983e-06
 Reference value :  9.26116e-06
 Reference value :  9.26359e-06
 Reference value :  9.26677e-06
 Reference value :  9.27237e-06
 Reference value :  9.28356e-06
 Reference value :  9.30272e-06
 Reference value :  9.34004e-06
 Reference value :  9.40840e-06
 Reference value :  9.50000e-06
 Reference value :  9.50001e-06
 Reference value :  9.50003e-06
 Reference value :  9.50007e-06
 Reference value :  9.50010e-06
 Reference value :  9.50010e-06
 Reference value :  9.50011e-06
 Reference value :  9.50013e-06
 Reference value :  9.50016e-06
 Reference value :  9.50023e-06
 Reference value :  9.50036e-06
 Reference value :  9.50054e-06
 Reference value :  9.50089e-06
 Reference value :  9.50151e-06
 Reference value :  9.50220e-06
 Reference value :  9.50282e-06
 Reference value :  9.50346e-06
 Reference value :  9.50415e-06
 Reference value :  9.50499e-06
 Reference value :  9.50587e-06
 Reference value :  9.50671e-06
 Reference value :  9.50777e-06
 Reference value :  9.50887e-06
 Reference value :  9.50996e-06
 Reference value :  9.51099e-06
 Reference value :  9.51243e-06
 Reference value :  9.51411e-06
 Reference value :  9.51683e-06
 Reference value :  9.51884e-06
 Reference value :  9.52100e-06
 Reference value :  9.52261e-06
 Reference value :  9.52414e-06
 Reference value :  9.52559e-06
 Reference value :  9.52715e-06
 Reference value :  9.52888e-06
 Reference value :  9.53114e-06
 Reference value :  9.53350e-06
 Reference value :  9.53812e-06
 Reference value :  9.54451e-06
 Reference value :  9.55564e-06
 Reference value :  9.57378e-06
 Reference value :  9.59947e-06
 Reference value :  9.63888e-06
 Reference value :  9.71681e-06
 Reference value :  9.75010e-06
 Reference value :  9.75011e-06
 Reference value :  9.75013e-06
 Reference value :  9.75017e-06
 Reference value :  9.75020e-06
 Reference value :  9.75020e-06
 Reference value :  9.75020e-06
 Reference value :  9.75021e-06
 Reference value :  9.75021e-06
 Reference value :  9.75022e-06
 Reference value :  9.75025e-06
 Reference value :  9.75029e-06
 Reference value :  9.75039e-06
 Reference value :  9.75058e-06
 Reference value :  9.75092e-06
 Reference value :  9.75135e-06
 Reference value :  9.75187e-06
 Reference value :  9.75248e-06
 Reference value :  9.75324e-06
 Reference value :  9.75412e-06
 Reference value :  9.75531e-06
 Reference value :  9.75621e-06
 Reference value :  9.75716e-06
 Reference value :  9.75826e-06
 Reference value :  9.75980e-06
 Reference value :  9.76127e-06
 Reference value :  9.76378e-06
 Reference value :  9.76678e-06
 Reference value :  9.77228e-06
 Reference value :  9.78330e-06
 Reference value :  9.80235e-06
 Reference value :  9.84045e-06
 Reference value :  9.91131e-06
 Reference value :  1.00000e-05
 Reference value :  1.00000e-05
 Reference value :  1.00000e-05
 Reference value :  1.00001e-05
 Reference value :  1.00001e-05
 Reference value :  1.00001e-05
 Reference value :  1.00001e-05
 Reference value :  1.00001e-05
 Reference value :  1.00002e-05
 Reference value :  1.00002e-05
 Reference value :  1.00004e-05
 Reference value :  1.00005e-05
 Reference value :  1.00009e-05
 Reference value :  1.00014e-05
 Reference value :  1.00022e-05
 Reference value :  1.00029e-05
 Reference value :  1.00036e-05
 Reference value :  1.00043e-05
 Reference value :  1.00052e-05
 Reference value :  1.00062e-05
 Reference value :  1.00072e-05
 Reference value :  1.00086e-05
 Reference value :  1.00100e-05
 Reference value :  1.00113e-05
 Reference value :  1.00127e-05
 Reference value :  1.00142e-05
 Reference value :  1.00159e-05
 Reference value :  1.00174e-05
 Reference value :  1.00195e-05
 Reference value :  1.00216e-05
 Reference value :  1.00254e-05
 Reference value :  1.00312e-05
 Reference value :  1.00412e-05
 Reference value :  1.00596e-05
 Reference value :  1.00920e-05
 Reference value :  1.01534e-05
 Reference value :  1.02501e-05
 Reference value :  1.02501e-05
 Reference value :  1.02501e-05
 Reference value :  1.02502e-05
 Reference value :  1.02502e-05
 Reference value :  1.02502e-05
 Reference value :  1.02502e-05
 Reference value :  1.02502e-05
 Reference value :  1.02502e-05
 Reference value :  1.02502e-05
 Reference value :  1.02502e-05
 Reference value :  1.02503e-05
 Reference value :  1.02504e-05
 Reference value :  1.02506e-05
 Reference value :  1.02509e-05
 Reference value :  1.02513e-05
 Reference value :  1.02519e-05
 Reference value :  1.02525e-05
 Reference value :  1.02532e-05
 Reference value :  1.02541e-05
 Reference value :  1.02553e-05
 Reference value :  1.02562e-05
 Reference value :  1.02571e-05
 Reference value :  1.02582e-05
 Reference value :  1.02593e-05
 Reference value :  1.02605e-05
 Reference value :  1.02629e-05
 Reference value :  1.02656e-05
 Reference value :  1.02702e-05
 Reference value :  1.02785e-05
 Reference value :  1.02951e-05
 Reference value :  1.03283e-05
 Reference value :  1.03930e-05
 Reference value :  1.05000e-05
 Reference value :  1.05000e-05
 Reference value :  1.05000e-05
 Reference value :  1.05001e-05
 Reference value :  1.05001e-05
 Reference value :  1.05001e-05
 Reference value :  1.05001e-05
 Reference value :  1.05001e-05
 Reference value :  1.05002e-05
 Reference value :  1.05002e-05
 Reference value :  1.05004e-05
 Reference value :  1.05005e-05
 Reference value :  1.05009e-05
 Reference value :  1.05014e-05
 Reference value :  1.05022e-05
 Reference value :  1.05029e-05
 Reference value :  1.05036e-05
 Reference value :  1.05043e-05
 Reference value :  1.05053e-05
 Reference value :  1.05060e-05
 Reference value :  1.05069e-05
 Reference value :  1.05078e-05
 Reference value :  1.05089e-05
 Reference value :  1.05099e-05
 Reference value :  1.05110e-05
 Reference value :  1.05124e-05
 Reference value :  1.05140e-05
 Reference value :  1.05163e-05
 Reference value :  1.05185e-05
 Reference value :  1.05205e-05
 Reference value :  1.05222e-05
 Reference value :  1.05237e-05
 Reference value :  1.05253e-05
 Reference value :  1.05270e-05
 Reference value :  1.05290e-05
 Reference value :  1.05309e-05
 Reference value :  1.05335e-05
 Reference value :  1.05380e-05
 Reference value :  1.05455e-05
 Reference value :  1.05597e-05
 Reference value :  1.05814e-05
 Reference value :  1.06227e-05
 Reference value :  1.06745e-05
 Reference value :  1.07369e-05
 Reference value :  1.07501e-05
 Reference value :  1.07501e-05
 Reference value :  1.07501e-05
 Reference value :  1.07502e-05
 Reference value :  1.07502e-05
 Reference value :  1.07502e-05
 Reference value :  1.07502e-05
 Reference value :  1.07502e-05
 Reference value :  1.07502e-05
 Reference value :  1.07502e-05
 Reference value :  1.07502e-05
 Reference value :  1.07503e-05
 Reference value :  1.07504e-05
 Reference value :  1.07506e-05
 Reference value :  1.07509e-05
 Reference value :  1.07513e-05
 Reference value :  1.07519e-05
 Reference value :  1.07525e-05
 Reference value :  1.07532e-05
 Reference value :  1.07541e-05
 Reference value :  1.07553e-05
 Reference value :  1.07562e-05
 Reference value :  1.07572e-05
 Reference value :  1.07582e-05
 Reference value :  1.07598e-05
 Reference value :  1.07613e-05
 Reference value :  1.07638e-05
 Reference value :  1.07667e-05
 Reference value :  1.07722e-05
 Reference value :  1.07832e-05
 Reference value :  1.08022e-05
 Reference value :  1.08403e-05
 Reference value :  1.09114e-05
 Reference value :  1.10000e-05
 Reference value :  1.10000e-05
 Reference value :  1.10000e-05
 Reference value :  1.10001e-05
 Reference value :  1.10001e-05
 Reference value :  1.10001e-05
 Reference value :  1.10001e-05
 Reference value :  1.10001e-05
 Reference value :  1.10002e-05
 Reference value :  1.10002e-05
 Reference value :  1.10004e-05
 Reference value :  1.10005e-05
 Reference value :  1.10009e-05
 Reference value :  1.10014e-05
 Reference value :  1.10022e-05
 Reference value :  1.10029e-05
 Reference value :  1.10036e-05
 Reference value :  1.10043e-05
 Reference value :  1.10052e-05
 Reference value :  1.10062e-05
 Reference value :  1.10072e-05
 Reference value :  1.10086e-05
 Reference value :  1.10100e-05
 Reference value :  1.10113e-05
 Reference value :  1.10127e-05
 Reference value :  1.10142e-05
 Reference value :  1.10159e-05
 Reference value :  1.10174e-05
 Reference value :  1.10196e-05
 Reference value :  1.10219e-05
 Reference value :  1.10260e-05
 Reference value :  1.10322e-05
 Reference value :  1.10430e-05
 Reference value :  1.10632e-05
 Reference value :  1.10983e-05
 Reference value :  1.11653e-05
 Reference value :  1.12501e-05
 Reference value :  1.12501e-05
 Reference value :  1.12501e-05
 Reference value :  1.12502e-05
 Reference value :  1.12502e-05
 Reference value :  1.12502e-05
 Reference value :  1.12502e-05
 Reference value :  1.12502e-05
 Reference value :  1.12502e-05
 Reference value :  1.12502e-05
 Reference value :  1.12502e-05
 Reference value :  1.12503e-05
 Reference value :  1.12504e-05
 Reference value :  1.12506e-05
 Reference value :  1.12509e-05
 Reference value :  1.12513e-05
 Reference value :  1.12519e-05
 Reference value :  1.12525e-05
 Reference value :  1.12532e-05
 Reference value :  1.12541e-05
 Reference value :  1.12553e-05
 Reference value :  1.12562e-05
 Reference value :  1.12571e-05
 Reference value :  1.12582e-05
 Reference value :  1.12593e-05
 Reference value :  1.12605e-05
 Reference value :  1.12629e-05
 Reference value :  1.12656e-05
 Reference value :  1.12702e-05
 Reference value :  1.12785e-05
 Reference value :  1.12950e-05
 Reference value :  1.13282e-05
 Reference value :  1.13925e-05
 Reference value :  1.15000e-05
 Reference value :  1.15000e-05
 Reference value :  1.15000e-05
 Reference value :  1.15001e-05
 Reference value :  1.15001e-05
 Reference value :  1.15001e-05
 Reference value :  1.15001e-05
 Reference value :  1.15001e-05
 Reference value :  1.15002e-05
 Reference value :  1.15002e-05
 Reference value :  1.15004e-05
 Reference value :  1.15005e-05
 Reference value :  1.15009e-05
 Reference value :  1.15014e-05
 Reference value :  1.15022e-05
 Reference value :  1.15029e-05
 Reference value :  1.15036e-05
 Reference value :  1.15043e-05
 Reference value :  1.15052e-05
 Reference value :  1.15060e-05
 Reference value :  1.15069e-05
 Reference value :  1.15078e-05
 Reference value :  1.15089e-05
 Reference value :  1.15100e-05
 Reference value :  1.15110e-05
 Reference value :  1.15125e-05
 Reference value :  1.15141e-05
 Reference value :  1.15167e-05
 Reference value :  1.15187e-05
 Reference value :  1.15208e-05
 Reference value :  1.15222e-05
 Reference value :  1.15236e-05
 Reference value :  1.15250e-05
 Reference value :  1.15265e-05
 Reference value :  1.15283e-05
 Reference value :  1.15301e-05
 Reference value :  1.15329e-05
 Reference value :  1.15367e-05
 Reference value :  1.15435e-05
 Reference value :  1.15562e-05
 Reference value :  1.15775e-05
 Reference value :  1.15974e-05
 Reference value :  1.16116e-05
 Reference value :  1.16250e-05
 Reference value :  1.16393e-05
 Reference value :  1.16486e-05
 Reference value :  1.16602e-05
 Reference value :  1.16797e-05
 Reference value :  1.17023e-05
 Reference value :  1.17408e-05
 Reference value :  1.17501e-05
 Reference value :  1.17501e-05
 Reference value :  1.17501e-05
 Reference value :  1.17502e-05
 Reference value :  1.17502e-05
 Reference value :  1.17502e-05
 Reference value :  1.17502e-05
 Reference value :  1.17502e-05
 Reference value :  1.17502e-05
 Reference value :  1.17502e-05
 Reference value :  1.17502e-05
 Reference value :  1.17503e-05
 Reference value :  1.17504e-05
 Reference value :  1.17506e-05
 Reference value :  1.17509e-05
 Reference value :  1.17513e-05
 Reference value :  1.17519e-05
 Reference value :  1.17525e-05
 Reference value :  1.17532e-05
 Reference value :  1.17541e-05
 Reference value :  1.17552e-05
 Reference value :  1.17562e-05
 Reference value :  1.17571e-05
 Reference value :  1.17582e-05
 Reference value :  1.17598e-05
 Reference value :  1.17613e-05
 Reference value :  1.17638e-05
 Reference value :  1.17667e-05
 Reference value :  1.17721e-05
 Reference value :  1.17828e-05
 Reference value :  1.18015e-05
 Reference value :  1.18212e-05
 Reference value :  1.18350e-05
 Reference value :  1.18480e-05
 Reference value :  1.18599e-05
 Reference value :  1.18739e-05
 Reference value :  1.18882e-05
 Reference value :  1.19129e-05
 Reference value :  1.19410e-05
 Reference value :  1.19842e-05
 Reference value :  1.20000e-05
 Reference value :  1.20000e-05
 Reference value :  1.20000e-05
 Reference value :  1.20001e-05
 Reference value :  1.20001e-05
 Reference value :  1.20001e-05
 Reference value :  1.20001e-05
 Reference value :  1.20001e-05
 Reference value :  1.20002e-05
 Reference value :  1.20002e-05
 Reference value :  1.20004e-05
 Reference value :  1.20005e-05
 Reference value :  1.20009e-05
 Reference value :  1.20014e-05
 Reference value :  1.20022e-05
 Reference value :  1.20029e-05
 Reference value :  1.20036e-05
 Reference value :  1.20043e-05
 Reference value :  1.20052e-05
 Reference value :  1.20062e-05
 Reference value :  1.20072e-05
 Reference value :  1.20086e-05
 Reference value :  1.20100e-05
 Reference value :  1.20113e-05
 Reference value :  1.20127e-05
 Reference value :  1.20142e-05
 Reference value :  1.20159e-05
 Reference value :  1.20177e-05
 Reference value :  1.20197e-05
 Reference value :  1.20237e-05
 Reference value :  1.20300e-05
 Reference value :  1.20426e-05
 Reference value :  1.20662e-05
 Reference value :  1.21092e-05
 Reference value :  1.21952e-05
 Reference value :  1.22501e-05
 Reference value :  1.22501e-05
 Reference value :  1.22501e-05
 Reference value :  1.22502e-05
 Reference value :  1.22502e-05
 Reference value :  1.22502e-05
 Reference value :  1.22502e-05
 Reference value :  1.22502e-05
 Reference value :  1.22502e-05
 Reference value :  1.22502e-05
 Reference value :  1.22502e-05
 Reference value :  1.22503e-05
 Reference value :  1.22504e-05
 Reference value :  1.22506e-05
 Reference value :  1.22509e-05
 Reference value :  1.22514e-05
 Reference value :  1.22519e-05
 Reference value :  1.22525e-05
 Reference value :  1.22533e-05
 Reference value :  1.22541e-05
 Reference value :  1.22553e-05
 Reference value :  1.22562e-05
 Reference value :  1.22572e-05
 Reference value :  1.22582e-05
 Reference value :  1.22593e-05
 Reference value :  1.22606e-05
 Reference value :  1.22630e-05
 Reference value :  1.22656e-05
 Reference value :  1.22703e-05
 Reference value :  1.22787e-05
 Reference value :  1.22956e-05
 Reference value :  1.23286e-05
 Reference value :  1.23947e-05
 Reference value :  1.25000e-05
 Reference value :  1.25000e-05
 Reference value :  1.25000e-05
 Reference value :  1.25001e-05
 Reference value :  1.25001e-05
 Reference value :  1.25001e-05
 Reference value :  1.25001e-05
 Reference value :  1.25001e-05
 Reference value :  1.25002e-05
 Reference value :  1.25002e-05
 Reference value :  1.25004e-05
 Reference value :  1.25005e-05
 Reference value :  1.25009e-05
 Reference value :  1.25014e-05
 Reference value :  1.25022e-05
 Reference value :  1.25029e-05
 Reference value :  1.25036e-05
 Reference value :  1.25043e-05
 Reference value :  1.25052e-05
 Reference value :  1.25060e-05
 Reference value :  1.25069e-05
 Reference value :  1.25078e-05
 Reference value :  1.25089e-05
 Reference value :  1.25099e-05
 Reference value :  1.25110e-05
 Reference value :  1.25123e-05
 Reference value :  1.25141e-05
 Reference value :  1.25167e-05
 Reference value :  1.25187e-05
 Reference value :  1.25208e-05
 Reference value :  1.25223e-05
 Reference value :  1.25238e-05
 Reference value :  1.25252e-05
 Reference value :  1.25268e-05
 Reference value :  1.25284e-05
 Reference value :  1.25306e-05
 Reference value :  1.25328e-05
 Reference value :  1.25372e-05
 Reference value :  1.25437e-05
 Reference value :  1.25510e-05
 Reference value :  1.25560e-05
 Reference value :  1.25611e-05
 Reference value :  1.25672e-05
 Reference value :  1.25738e-05
 Reference value :  1.25797e-05
 Reference value :  1.25870e-05
 Reference value :  1.25945e-05
 Reference value :  1.26089e-05
 Reference value :  1.26247e-05
 Reference value :  1.26444e-05
 Reference value :  1.26663e-05
 Reference value :  1.26946e-05
 Reference value :  1.27299e-05
 Reference value :  1.27501e-05
 Reference value :  1.27501e-05
 Reference value :  1.27501e-05
 Reference value :  1.27502e-05
 Reference value :  1.27502e-05
 Reference value :  1.27502e-05
 Reference value :  1.27502e-05
 Reference value :  1.27502e-05
 Reference value :  1.27502e-05
 Reference value :  1.27502e-05
 Reference value :  1.27502e-05
 Reference value :  1.27503e-05
 Reference value :  1.27504e-05
 Reference value :  1.27506e-05
 Reference value :  1.27509e-05
 Reference value :  1.27514e-05
 Reference value :  1.27519e-05
 Reference value :  1.27525e-05
 Reference value :  1.27533e-05
 Reference value :  1.27541e-05
 Reference value :  1.27553e-05
 Reference value :  1.27562e-05
 Reference value :  1.27572e-05
 Reference value :  1.27583e-05
 Reference value :  1.27599e-05
 Reference value :  1.27615e-05
 Reference value :  1.27639e-05
 Reference value :  1.27670e-05
 Reference value :  1.27725e-05
 Reference value :  1.27834e-05
 Reference value :  1.28023e-05
 Reference value :  1.28395e-05
 Reference value :  1.29116e-05
 Reference value :  1.30000e-05
 Reference value :  1.30000e-05
 Reference value :  1.30000e-05
 Reference value :  1.30001e-05
 Reference value :  1.30001e-05
 Reference value :  1.30001e-05
 Reference value :  1.30001e-05
 Reference value :  1.30001e-05
 Reference value :  1.30002e-05
 Reference value :  1.30002e-05
 Reference value :  1.30004e-05
 Reference value :  1.30005e-05
 Reference value :  1.30009e-05
 Reference value :  1.30014e-05
 Reference value :  1.30022e-05
 Reference value :  1.30028e-05
 Reference value :  1.30035e-05
 Reference value :  1.30042e-05
 Reference value :  1.30051e-05
 Reference value :  1.30061e-05
 Reference value :  1.30071e-05
 Reference value :  1.30085e-05
 Reference value :  1.30099e-05
 Reference value :  1.30112e-05
 Reference value :  1.30126e-05
 Reference value :  1.30139e-05
 Reference value :  1.30155e-05
 Reference value :  1.30171e-05
 Reference value :  1.30188e-05
 Reference value :  1.30223e-05
 Reference value :  1.30293e-05
 Reference value :  1.30411e-05
 Reference value :  1.30647e-05
 Reference value :  1.31091e-05
 Reference value :  1.31978e-05
 Reference value :  1.32501e-05
 Reference value :  1.32501e-05
 Reference value :  1.32501e-05
 Reference value :  1.32502e-05
 Reference value :  1.32502e-05
 Reference value :  1.32502e-05
 Reference value :  1.32502e-05
 Reference value :  1.32502e-05
 Reference value :  1.32502e-05
 Reference value :  1.32502e-05
 Reference value :  1.32502e-05
 Reference value :  1.32503e-05
 Reference value :  1.32504e-05
 Reference value :  1.32506e-05
 Reference value :  1.32509e-05
 Reference value :  1.32514e-05
 Reference value :  1.32519e-05
 Reference value :  1.32525e-05
 Reference value :  1.32533e-05
 Reference value :  1.32541e-05
 Reference value :  1.32553e-05
 Reference value :  1.32562e-05
 Reference value :  1.32572e-05
 Reference value :  1.32582e-05
 Reference value :  1.32593e-05
 Reference value :  1.32606e-05
 Reference value :  1.32618e-05
 Reference value :  1.32632e-05
 Reference value :  1.32654e-05
 Reference value :  1.32677e-05
 Reference value :  1.32713e-05
 Reference value :  1.32770e-05
 Reference value :  1.32884e-05
 Reference value :  1.33112e-05
 Reference value :  1.33564e-05
 Reference value :  1.34469e-05
 Reference value :  1.35000e-05
 Reference value :  1.35000e-05
 Reference value :  1.35000e-05
 Reference value :  1.35001e-05
 Reference value :  1.35001e-05
 Reference value :  1.35001e-05
 Reference value :  1.35001e-05
 Reference value :  1.35001e-05
 Reference value :  1.35002e-05
 Reference value :  1.35002e-05
 Reference value :  1.35004e-05
 Reference value :  1.35005e-05
 Reference value :  1.35009e-05
 Reference value :  1.35014e-05
 Reference value :  1.35022e-05
 Reference value :  1.35029e-05
 Reference value :  1.35036e-05
 Reference value :  1.35043e-05
 Reference value :  1.35052e-05
 Reference value :  1.35060e-05
 Reference value :  1.35068e-05
 Reference value :  1.35078e-05
 Reference value :  1.35087e-05
 Reference value :  1.35097e-05
 Reference value :  1.35107e-05
 Reference value :  1.35119e-05
 Reference value :  1.35136e-05
 Reference value :  1.35148e-05
 Reference value :  1.35162e-05
 Reference value :  1.35176e-05
 Reference value :  1.35193e-05
 Reference value :  1.35211e-05
 Reference value :  1.35226e-05
 Reference value :  1.35241e-05
 Reference value :  1.35256e-05
 Reference value :  1.35271e-05
 Reference value :  1.35288e-05
 Reference value :  1.35310e-05
 Reference value :  1.35334e-05
 Reference value :  1.35372e-05
 Reference value :  1.35416e-05
 Reference value :  1.35462e-05
 Reference value :  1.35494e-05
 Reference value :  1.35530e-05
 Reference value :  1.35561e-05
 Reference value :  1.35596e-05
 Reference value :  1.35665e-05
 Reference value :  1.35747e-05
 Reference value :  1.35849e-05
 Reference value :  1.35955e-05
 Reference value :  1.36092e-05
 Reference value :  1.36276e-05
 Reference value :  1.36586e-05
 Reference value :  1.37098e-05
 Reference value :  1.37501e-05
 Reference value :  1.37501e-05
 Reference value :  1.37501e-05
 Reference value :  1.37502e-05
 Reference value :  1.37502e-05
 Reference value :  1.37502e-05
 Reference value :  1.37502e-05
 Reference value :  1.37502e-05
 Reference value :  1.37502e-05
 Reference value :  1.37502e-05
 Reference value :  1.37502e-05
 Reference value :  1.37503e-05
 Reference value :  1.37504e-05
 Reference value :  1.37506e-05
 Reference value :  1.37509e-05
 Reference value :  1.37513e-05
 Reference value :  1.37519e-05
 Reference value :  1.37525e-05
 Reference value :  1.37532e-05
 Reference value :  1.37541e-05
 Reference value :  1.37553e-05
 Reference value :  1.37562e-05
 Reference value :  1.37571e-05
 Reference value :  1.37582e-05
 Reference value :  1.37596e-05
 Reference value :  1.37610e-05
 Reference value :  1.37635e-05
 Reference value :  1.37664e-05
 Reference value :  1.37714e-05
 Reference value :  1.37815e-05
 Reference value :  1.38000e-05
 Reference value :  1.38362e-05
 Reference value :  1.38849e-05
 Reference value :  1.39597e-05
 Reference value :  1.40000e-05
 Reference value :  1.40000e-05
 Reference value :  1.40000e-05
 Reference value :  1.40001e-05
 Reference value :  1.40001e-05
 Reference value :  1.40001e-05
 Reference value :  1.40001e-05
 Reference value :  1.40001e-05
 Reference value :  1.40002e-05
 Reference value :  1.40002e-05
 Reference value :  1.40004e-05
 Reference value :  1.40005e-05
 Reference value :  1.40009e-05
 Reference value :  1.40014e-05
 Reference value :  1.40022e-05
 Reference value :  1.40028e-05
 Reference value :  1.40036e-05
 Reference value :  1.40042e-05
 Reference value :  1.40053e-05
 Reference value :  1.40063e-05
 Reference value :  1.40072e-05
 Reference value :  1.40086e-05
 Reference value :  1.40100e-05
 Reference value :  1.40113e-05
 Reference value :  1.40126e-05
 Reference value :  1.40138e-05
 Reference value :  1.40153e-05
 Reference value :  1.40168e-05
 Reference value :  1.40184e-05
 Reference value :  1.40218e-05
 Reference value :  1.40284e-05
 Reference value :  1.40407e-05
 Reference value :  1.40652e-05
 Reference value :  1.41132e-05
 Reference value :  1.42093e-05
 Reference value :  1.42501e-05
 Reference value :  1.42501e-05
 Reference value :  1.42501e-05
 Reference value :  1.42502e-05
 Reference value :  1.42502e-05
 Reference value :  1.42502e-05
 Reference value :  1.42502e-05
 Reference value :  1.42502e-05
 Reference value :  1.42502e-05
 Reference value :  1.42502e-05
 Reference value :  1.42502e-05
 Reference value :  1.42503e-05
 Reference value :  1.42504e-05
 Reference value :  1.42506e-05
 Reference value :  1.42509e-05
 Reference value :  1.42514e-05
 Reference value :  1.42519e-05
 Reference value :  1.42525e-05
 Reference value :  1.42533e-05
 Reference value :  1.42541e-05
 Reference value :  1.42553e-05
 Reference value :  1.42562e-05
 Reference value :  1.42572e-05
 Reference value :  1.42582e-05
 Reference value :  1.42593e-05
 Reference value :  1.42606e-05
 Reference value :  1.42618e-05
 Reference value :  1.42632e-05
 Reference value :  1.42654e-05
 Reference value :  1.42677e-05
 Reference value :  1.42713e-05
 Reference value :  1.42770e-05
 Reference value :  1.42885e-05
 Reference value :  1.43113e-05
 Reference value :  1.43567e-05
 Reference value :  1.44476e-05
 Reference value :  1.45000e-05
 Reference value :  1.45000e-05
 Reference value :  1.45000e-05
 Reference value :  1.45001e-05
 Reference value :  1.45001e-05
 Reference value :  1.45001e-05
 Reference value :  1.45001e-05
 Reference value :  1.45001e-05
 Reference value :  1.45002e-05
 Reference value :  1.45002e-05
 Reference value :  1.45004e-05
 Reference value :  1.45005e-05
 Reference value :  1.45009e-05
 Reference value :  1.45014e-05
 Reference value :  1.45022e-05
 Reference value :  1.45029e-05
 Reference value :  1.45036e-05
 Reference value :  1.45043e-05
 Reference value :  1.45052e-05
 Reference value :  1.45060e-05
 Reference value :  1.45068e-05
 Reference value :  1.45078e-05
 Reference value :  1.45086e-05
 Reference value :  1.45095e-05
 Reference value :  1.45105e-05
 Reference value :  1.45117e-05
 Reference value :  1.45135e-05
 Reference value :  1.45147e-05
 Reference value :  1.45161e-05
 Reference value :  1.45176e-05
 Reference value :  1.45193e-05
 Reference value :  1.45213e-05
 Reference value :  1.45225e-05
 Reference value :  1.45240e-05
 Reference value :  1.45253e-05
 Reference value :  1.45267e-05
 Reference value :  1.45284e-05
 Reference value :  1.45302e-05
 Reference value :  1.45316e-05
 Reference value :  1.45332e-05
 Reference value :  1.45354e-05
 Reference value :  1.45376e-05
 Reference value :  1.45399e-05
 Reference value :  1.45443e-05
 Reference value :  1.45509e-05
 Reference value :  1.45567e-05
 Reference value :  1.45633e-05
 Reference value :  1.45703e-05
 Reference value :  1.45811e-05
 Reference value :  1.45968e-05
 Reference value :  1.46255e-05
 Reference value :  1.46803e-05
 Reference value :  1.47501e-05
 Reference value :  1.47501e-05
 Reference value :  1.47501e-05
 Reference value :  1.47502e-05
 Reference value :  1.47502e-05
 Reference value :  1.47502e-05
 Reference value :  1.47502e-05
 Reference value :  1.47502e-05
 Reference value :  1.47502e-05
 Reference value :  1.47502e-05
 Reference value :  1.47502e-05
 Reference value :  1.47503e-05
 Reference value :  1.47504e-05
 Reference value :  1.47506e-05
 Reference value :  1.47509e-05
 Reference value :  1.47513e-05
 Reference value :  1.47519e-05
 Reference value :  1.47525e-05
 Reference value :  1.47532e-05
 Reference value :  1.47541e-05
 Reference value :  1.47553e-05
 Reference value :  1.47562e-05
 Reference value :  1.47571e-05
 Reference value :  1.47582e-05
 Reference value :  1.47596e-05
 Reference value :  1.47610e-05
 Reference value :  1.47635e-05
 Reference value :  1.47664e-05
 Reference value :  1.47714e-05
 Reference value :  1.47816e-05
 Reference value :  1.48001e-05
 Reference value :  1.48363e-05
 Reference value :  1.49078e-05
 Reference value :  1.50000e-05
 Reference value :  1.50000e-05
 Reference value :  1.50000e-05
 Reference value :  1.50001e-05
 Reference value :  1.50001e-05
 Reference value :  1.50001e-05
 Reference value :  1.50001e-05
 Reference value :  1.50001e-05
 Reference value :  1.50002e-05
 Reference value :  1.50002e-05
 Reference value :  1.50004e-05
 Reference value :  1.50005e-05
 Reference value :  1.50009e-05
 Reference value :  1.50014e-05
 Reference value :  1.50022e-05
 Reference value :  1.50029e-05
 Reference value :  1.50036e-05
 Reference value :  1.50043e-05
 Reference value :  1.50052e-05
 Reference value :  1.50062e-05
 Reference value :  1.50071e-05
 Reference value :  1.50086e-05
 Reference value :  1.50100e-05
 Reference value :  1.50112e-05
 Reference value :  1.50126e-05
 Reference value :  1.50139e-05
 Reference value :  1.50154e-05
 Reference value :  1.50169e-05
 Reference value :  1.50186e-05
 Reference value :  1.50221e-05
 Reference value :  1.50289e-05
 Reference value :  1.50405e-05
 Reference value :  1.50636e-05
 Reference value :  1.51070e-05
 Reference value :  1.51881e-05
 Reference value :  1.52501e-05
 Reference value :  1.52501e-05
 Reference value :  1.52501e-05
 Reference value :  1.52502e-05
 Reference value :  1.52502e-05
 Reference value :  1.52502e-05
 Reference value :  1.52502e-05
 Reference value :  1.52502e-05
 Reference value :  1.52502e-05
 Reference value :  1.52502e-05
 Reference value :  1.52502e-05
 Reference value :  1.52503e-05
 Reference value :  1.52504e-05
 Reference value :  1.52506e-05
 Reference value :  1.52509e-05
 Reference value :  1.52514e-05
 Reference value :  1.52519e-05
 Reference value :  1.52525e-05
 Reference value :  1.52533e-05
 Reference value :  1.52541e-05
 Reference value :  1.52553e-05
 Reference value :  1.52562e-05
 Reference value :  1.52572e-05
 Reference value :  1.52582e-05
 Reference value :  1.52593e-05
 Reference value :  1.52606e-05
 Reference value :  1.52630e-05
 Reference value :  1.52657e-05
 Reference value :  1.52703e-05
 Reference value :  1.52788e-05
 Reference value :  1.52959e-05
 Reference value :  1.53290e-05
 Reference value :  1.53951e-05
 Reference value :  1.55000e-05
 Reference value :  1.55017e-05
 Reference value :  1.55050e-05
 Reference value :  1.55067e-05
 Reference value :  1.55084e-05
 Reference value :  1.55098e-05
 Reference value :  1.55112e-05
 Reference value :  1.55128e-05
 Reference value :  1.55144e-05
 Reference value :  1.55168e-05
 Reference value :  1.55191e-05
 Reference value :  1.55214e-05
 Reference value :  1.55231e-05
 Reference value :  1.55248e-05
 Reference value :  1.55266e-05
 Reference value :  1.55283e-05
 Reference value :  1.55302e-05
 Reference value :  1.55322e-05
 Reference value :  1.55348e-05
 Reference value :  1.55394e-05
 Reference value :  1.55424e-05
 Reference value :  1.55455e-05
 Reference value :  1.55493e-05
 Reference value :  1.55556e-05
 Reference value :  1.55627e-05
 Reference value :  1.55717e-05
 Reference value :  1.55803e-05
 Reference value :  1.55883e-05
 Reference value :  1.55990e-05
 Reference value :  1.56170e-05
 Reference value :  1.56395e-05
 Reference value :  1.56605e-05
 Reference value :  1.56868e-05
 Reference value :  1.57086e-05
 Reference value :  1.57295e-05
 Reference value :  1.57501e-05
 Reference value :  1.57501e-05
 Reference value :  1.57501e-05
 Reference value :  1.57502e-05
 Reference value :  1.57502e-05
 Reference value :  1.57502e-05
 Reference value :  1.57502e-05
 Reference value :  1.57502e-05
 Reference value :  1.57502e-05
 Reference value :  1.57502e-05
 Reference value :  1.57502e-05
 Reference value :  1.57503e-05
 Reference value :  1.57504e-05
 Reference value :  1.57506e-05
 Reference value :  1.57509e-05
 Reference value :  1.57514e-05
 Reference value :  1.57519e-05
 Reference value :  1.57525e-05
 Reference value :  1.57533e-05
 Reference value :  1.57541e-05
 Reference value :  1.57553e-05
 Reference value :  1.57562e-05
 Reference value :  1.57572e-05
 Reference value :  1.57583e-05
 Reference value :  1.57598e-05
 Reference value :  1.57614e-05
 Reference value :  1.57638e-05
 Reference value :  1.57669e-05
 Reference value :  1.57725e-05
 Reference value :  1.57835e-05
 Reference value :  1.58026e-05
 Reference value :  1.58404e-05
 Reference value :  1.59102e-05
 Reference value :  1.59813e-05
 Reference value :  1.60000e-05
 Reference value :  1.60000e-05
 Reference value :  1.60000e-05
 Reference value :  1.60001e-05
 Reference value :  1.60001e-05
 Reference value :  1.60001e-05
 Reference value :  1.60001e-05
 Reference value :  1.60001e-05
 Reference value :  1.60002e-05
 Reference value :  1.60002e-05
[...]
 Reference value :  1.74283e-04
 Reference value :  1.74302e-04
 Reference value :  1.74339e-04
 Reference value :  1.74412e-04
 Reference value :  1.74500e-04
 Reference value :  1.74500e-04
 Reference value :  1.74500e-04
 Reference value :  1.74500e-04
 Reference value :  1.74500e-04
 Reference value :  1.74500e-04
 Reference value :  1.74500e-04
 Reference value :  1.74500e-04
 Reference value :  1.74500e-04
 Reference value :  1.74500e-04
 Reference value :  1.74500e-04
 Reference value :  1.74501e-04
 Reference value :  1.74501e-04
 Reference value :  1.74501e-04
 Reference value :  1.74502e-04
 Reference value :  1.74503e-04
 Reference value :  1.74504e-04
 Reference value :  1.74504e-04
 Reference value :  1.74505e-04
 Reference value :  1.74506e-04
 Reference value :  1.74507e-04
 Reference value :  1.74509e-04
 Reference value :  1.74510e-04
 Reference value :  1.74511e-04
 Reference value :  1.74513e-04
 Reference value :  1.74514e-04
 Reference value :  1.74515e-04
 Reference value :  1.74517e-04
 Reference value :  1.74519e-04
 Reference value :  1.74522e-04
 Reference value :  1.74529e-04
 Reference value :  1.74540e-04
 Reference value :  1.74553e-04
 Reference value :  1.74578e-04
 Reference value :  1.74628e-04
 Reference value :  1.74728e-04
 Reference value :  1.74750e-04
 Reference value :  1.74750e-04
 Reference value :  1.74750e-04
 Reference value :  1.74750e-04
 Reference value :  1.74750e-04
 Reference value :  1.74750e-04
 Reference value :  1.74750e-04
 Reference value :  1.74750e-04
 Reference value :  1.74750e-04
 Reference value :  1.74750e-04
 Reference value :  1.74750e-04
 Reference value :  1.74750e-04
 Reference value :  1.74750e-04
 Reference value :  1.74751e-04
 Reference value :  1.74751e-04
 Reference value :  1.74751e-04
 Reference value :  1.74752e-04
 Reference value :  1.74752e-04
 Reference value :  1.74753e-04
 Reference value :  1.74754e-04
 Reference value :  1.74755e-04
 Reference value :  1.74756e-04
 Reference value :  1.74757e-04
 Reference value :  1.74758e-04
 Reference value :  1.74759e-04
 Reference value :  1.74761e-04
 Reference value :  1.74763e-04
 Reference value :  1.74766e-04
 Reference value :  1.74770e-04
 Reference value :  1.74779e-04
 Reference value :  1.74795e-04
 Reference value :  1.74828e-04
 Reference value :  1.74892e-04
 Reference value :  1.75000e-04
 Reference value :  1.75000e-04
 Reference value :  1.75000e-04
 Reference value :  1.75000e-04
 Reference value :  1.75000e-04
 Reference value :  1.75000e-04
 Reference value :  1.75000e-04
 Reference value :  1.75000e-04
 Reference value :  1.75000e-04
 Reference value :  1.75000e-04
 Reference value :  1.75000e-04
 Reference value :  1.75001e-04
 Reference value :  1.75001e-04
 Reference value :  1.75001e-04
 Reference value :  1.75002e-04
 Reference value :  1.75003e-04
 Reference value :  1.75004e-04
 Reference value :  1.75004e-04
 Reference value :  1.75005e-04
 Reference value :  1.75006e-04
 Reference value :  1.75007e-04
 Reference value :  1.75008e-04
 Reference value :  1.75009e-04
 Reference value :  1.75010e-04
 Reference value :  1.75011e-04
 Reference value :  1.75012e-04
 Reference value :  1.75014e-04
 Reference value :  1.75016e-04
 Reference value :  1.75018e-04
 Reference value :  1.75020e-04
 Reference value :  1.75022e-04
 Reference value :  1.75024e-04
 Reference value :  1.75025e-04
 Reference value :  1.75027e-04
 Reference value :  1.75029e-04
 Reference value :  1.75031e-04
 Reference value :  1.75034e-04
 Reference value :  1.75038e-04
 Reference value :  1.75043e-04
 Reference value :  1.75047e-04
 Reference value :  1.75052e-04
 Reference value :  1.75056e-04
 Reference value :  1.75061e-04
 Reference value :  1.75068e-04
 Reference value :  1.75075e-04
 Reference value :  1.75083e-04
 Reference value :  1.75090e-04
 Reference value :  1.75103e-04
 Reference value :  1.75117e-04
 Reference value :  1.75139e-04
 Reference value :  1.75167e-04
 Reference value :  1.75225e-04
 Reference value :  1.75250e-04
 Reference value :  1.75250e-04
 Reference value :  1.75250e-04
 Reference value :  1.75250e-04
 Reference value :  1.75250e-04
 Reference value :  1.75250e-04
 Reference value :  1.75250e-04
 Reference value :  1.75250e-04
 Reference value :  1.75250e-04
 Reference value :  1.75250e-04
 Reference value :  1.75250e-04
 Reference value :  1.75250e-04
 Reference value :  1.75250e-04
 Reference value :  1.75251e-04
 Reference value :  1.75251e-04
 Reference value :  1.75251e-04
 Reference value :  1.75252e-04
 Reference value :  1.75252e-04
 Reference value :  1.75253e-04
 Reference value :  1.75254e-04
 Reference value :  1.75255e-04
 Reference value :  1.75256e-04
 Reference value :  1.75257e-04
 Reference value :  1.75258e-04
 Reference value :  1.75260e-04
 Reference value :  1.75261e-04
 Reference value :  1.75264e-04
 Reference value :  1.75267e-04
 Reference value :  1.75272e-04
 Reference value :  1.75283e-04
 Reference value :  1.75302e-04
 Reference value :  1.75339e-04
 Reference value :  1.75410e-04
 Reference value :  1.75500e-04
 Reference value :  1.75500e-04
 Reference value :  1.75500e-04
 Reference value :  1.75500e-04
 Reference value :  1.75500e-04
 Reference value :  1.75500e-04
 Reference value :  1.75500e-04
 Reference value :  1.75500e-04
 Reference value :  1.75500e-04
 Reference value :  1.75500e-04
 Reference value :  1.75500e-04
 Reference value :  1.75501e-04
 Reference value :  1.75501e-04
 Reference value :  1.75501e-04
 Reference value :  1.75502e-04
 Reference value :  1.75503e-04
 Reference value :  1.75504e-04
 Reference value :  1.75504e-04
 Reference value :  1.75505e-04
 Reference value :  1.75506e-04
 Reference value :  1.75507e-04
 Reference value :  1.75509e-04
 Reference value :  1.75510e-04
 Reference value :  1.75511e-04
 Reference value :  1.75513e-04
 Reference value :  1.75514e-04
 Reference value :  1.75515e-04
 Reference value :  1.75517e-04
 Reference value :  1.75519e-04
 Reference value :  1.75522e-04
 Reference value :  1.75529e-04
 Reference value :  1.75540e-04
 Reference value :  1.75563e-04
 Reference value :  1.75607e-04
 Reference value :  1.75694e-04
 Reference value :  1.75750e-04
 Reference value :  1.75750e-04
 Reference value :  1.75750e-04
 Reference value :  1.75750e-04
 Reference value :  1.75750e-04
 Reference value :  1.75750e-04
 Reference value :  1.75750e-04
 Reference value :  1.75750e-04
 Reference value :  1.75750e-04
 Reference value :  1.75750e-04
 Reference value :  1.75750e-04
 Reference value :  1.75750e-04
 Reference value :  1.75750e-04
 Reference value :  1.75751e-04
 Reference value :  1.75751e-04
 Reference value :  1.75751e-04
 Reference value :  1.75752e-04
 Reference value :  1.75752e-04
 Reference value :  1.75753e-04
 Reference value :  1.75754e-04
 Reference value :  1.75755e-04
 Reference value :  1.75756e-04
 Reference value :  1.75757e-04
 Reference value :  1.75758e-04
 Reference value :  1.75759e-04
 Reference value :  1.75761e-04
 Reference value :  1.75762e-04
 Reference value :  1.75763e-04
 Reference value :  1.75765e-04
 Reference value :  1.75768e-04
 Reference value :  1.75771e-04
 Reference value :  1.75777e-04
 Reference value :  1.75788e-04
 Reference value :  1.75811e-04
 Reference value :  1.75856e-04
 Reference value :  1.75946e-04
 Reference value :  1.76000e-04
 Reference value :  1.76000e-04
 Reference value :  1.76000e-04
 Reference value :  1.76000e-04
 Reference value :  1.76000e-04
 Reference value :  1.76000e-04
 Reference value :  1.76000e-04
 Reference value :  1.76000e-04
 Reference value :  1.76000e-04
 Reference value :  1.76000e-04
 Reference value :  1.76000e-04
 Reference value :  1.76001e-04
 Reference value :  1.76001e-04
 Reference value :  1.76001e-04
 Reference value :  1.76002e-04
 Reference value :  1.76003e-04
 Reference value :  1.76004e-04
 Reference value :  1.76004e-04
 Reference value :  1.76005e-04
 Reference value :  1.76006e-04
 Reference value :  1.76007e-04
 Reference value :  1.76008e-04
 Reference value :  1.76009e-04
 Reference value :  1.76010e-04
 Reference value :  1.76011e-04
 Reference value :  1.76012e-04
 Reference value :  1.76014e-04
 Reference value :  1.76015e-04
 Reference value :  1.76016e-04
 Reference value :  1.76018e-04
 Reference value :  1.76019e-04
 Reference value :  1.76021e-04
 Reference value :  1.76022e-04
 Reference value :  1.76024e-04
 Reference value :  1.76025e-04
 Reference value :  1.76026e-04
 Reference value :  1.76028e-04
 Reference value :  1.76029e-04
 Reference value :  1.76031e-04
 Reference value :  1.76034e-04
 Reference value :  1.76038e-04
 Reference value :  1.76045e-04
 Reference value :  1.76051e-04
 Reference value :  1.76056e-04
 Reference value :  1.76062e-04
 Reference value :  1.76068e-04
 Reference value :  1.76078e-04
 Reference value :  1.76092e-04
 Reference value :  1.76104e-04
 Reference value :  1.76122e-04
 Reference value :  1.76134e-04
 Reference value :  1.76147e-04
 Reference value :  1.76165e-04
 Reference value :  1.76189e-04
 Reference value :  1.76227e-04
 Reference value :  1.76250e-04
 Reference value :  1.76250e-04
 Reference value :  1.76250e-04
 Reference value :  1.76250e-04
 Reference value :  1.76250e-04
 Reference value :  1.76250e-04
 Reference value :  1.76250e-04
 Reference value :  1.76250e-04
 Reference value :  1.76250e-04
 Reference value :  1.76250e-04
 Reference value :  1.76250e-04
 Reference value :  1.76250e-04
 Reference value :  1.76250e-04
 Reference value :  1.76251e-04
 Reference value :  1.76251e-04
 Reference value :  1.76251e-04
 Reference value :  1.76252e-04
 Reference value :  1.76252e-04
 Reference value :  1.76253e-04
 Reference value :  1.76254e-04
 Reference value :  1.76255e-04
 Reference value :  1.76256e-04
 Reference value :  1.76257e-04
 Reference value :  1.76258e-04
 Reference value :  1.76260e-04
 Reference value :  1.76261e-04
 Reference value :  1.76264e-04
 Reference value :  1.76267e-04
 Reference value :  1.76273e-04
 Reference value :  1.76284e-04
 Reference value :  1.76303e-04
 Reference value :  1.76340e-04
 Reference value :  1.76409e-04
 Reference value :  1.76500e-04
 Reference value :  1.76500e-04
 Reference value :  1.76500e-04
 Reference value :  1.76500e-04
 Reference value :  1.76500e-04
 Reference value :  1.76500e-04
 Reference value :  1.76500e-04
 Reference value :  1.76500e-04
 Reference value :  1.76500e-04
 Reference value :  1.76500e-04
 Reference value :  1.76500e-04
 Reference value :  1.76501e-04
 Reference value :  1.76501e-04
 Reference value :  1.76501e-04
 Reference value :  1.76502e-04
 Reference value :  1.76503e-04
 Reference value :  1.76504e-04
 Reference value :  1.76504e-04
 Reference value :  1.76505e-04
 Reference value :  1.76506e-04
 Reference value :  1.76507e-04
 Reference value :  1.76509e-04
 Reference value :  1.76510e-04
 Reference value :  1.76511e-04
 Reference value :  1.76513e-04
 Reference value :  1.76514e-04
 Reference value :  1.76516e-04
 Reference value :  1.76517e-04
 Reference value :  1.76519e-04
 Reference value :  1.76523e-04
 Reference value :  1.76528e-04
 Reference value :  1.76540e-04
 Reference value :  1.76562e-04
 Reference value :  1.76603e-04
 Reference value :  1.76685e-04
 Reference value :  1.76750e-04
 Reference value :  1.76750e-04
 Reference value :  1.76750e-04
 Reference value :  1.76750e-04
 Reference value :  1.76750e-04
 Reference value :  1.76750e-04
 Reference value :  1.76750e-04
 Reference value :  1.76750e-04
 Reference value :  1.76750e-04
 Reference value :  1.76750e-04
 Reference value :  1.76750e-04
 Reference value :  1.76750e-04
 Reference value :  1.76750e-04
 Reference value :  1.76751e-04
 Reference value :  1.76751e-04
 Reference value :  1.76751e-04
 Reference value :  1.76752e-04
 Reference value :  1.76752e-04
 Reference value :  1.76753e-04
 Reference value :  1.76754e-04
 Reference value :  1.76755e-04
 Reference value :  1.76756e-04
 Reference value :  1.76757e-04
 Reference value :  1.76758e-04
 Reference value :  1.76759e-04
 Reference value :  1.76761e-04
 Reference value :  1.76762e-04
 Reference value :  1.76763e-04
 Reference value :  1.76765e-04
 Reference value :  1.76768e-04
 Reference value :  1.76771e-04
 Reference value :  1.76777e-04
 Reference value :  1.76789e-04
 Reference value :  1.76811e-04
 Reference value :  1.76856e-04
 Reference value :  1.76946e-04
 Reference value :  1.77000e-04
 Reference value :  1.77000e-04
 Reference value :  1.77000e-04
 Reference value :  1.77000e-04
 Reference value :  1.77000e-04
 Reference value :  1.77000e-04
 Reference value :  1.77000e-04
 Reference value :  1.77000e-04
 Reference value :  1.77000e-04
 Reference value :  1.77000e-04
 Reference value :  1.77000e-04
 Reference value :  1.77001e-04
 Reference value :  1.77001e-04
 Reference value :  1.77001e-04
 Reference value :  1.77002e-04
 Reference value :  1.77003e-04
 Reference value :  1.77004e-04
 Reference value :  1.77004e-04
 Reference value :  1.77005e-04
 Reference value :  1.77006e-04
 Reference value :  1.77007e-04
 Reference value :  1.77008e-04
 Reference value :  1.77009e-04
 Reference value :  1.77010e-04
 Reference value :  1.77011e-04
 Reference value :  1.77012e-04
 Reference value :  1.77014e-04
 Reference value :  1.77015e-04
 Reference value :  1.77017e-04
 Reference value :  1.77018e-04
 Reference value :  1.77020e-04
 Reference value :  1.77021e-04
 Reference value :  1.77022e-04
 Reference value :  1.77024e-04
 Reference value :  1.77025e-04
 Reference value :  1.77026e-04
 Reference value :  1.77027e-04
 Reference value :  1.77029e-04
 Reference value :  1.77031e-04
 Reference value :  1.77033e-04
 Reference value :  1.77037e-04
 Reference value :  1.77042e-04
 Reference value :  1.77045e-04
 Reference value :  1.77049e-04
 Reference value :  1.77054e-04
 Reference value :  1.77063e-04
 Reference value :  1.77075e-04
 Reference value :  1.77100e-04
 Reference value :  1.77133e-04
 Reference value :  1.77171e-04
 Reference value :  1.77247e-04
 Reference value :  1.77250e-04
 Reference value :  1.77250e-04
 Reference value :  1.77250e-04
 Reference value :  1.77250e-04
 Reference value :  1.77250e-04
 Reference value :  1.77250e-04
 Reference value :  1.77250e-04
 Reference value :  1.77250e-04
 Reference value :  1.77250e-04
 Reference value :  1.77250e-04
 Reference value :  1.77250e-04
 Reference value :  1.77250e-04
 Reference value :  1.77250e-04
 Reference value :  1.77251e-04
 Reference value :  1.77251e-04
 Reference value :  1.77251e-04
 Reference value :  1.77252e-04
 Reference value :  1.77252e-04
 Reference value :  1.77253e-04
 Reference value :  1.77254e-04
 Reference value :  1.77255e-04
 Reference value :  1.77256e-04
 Reference value :  1.77257e-04
 Reference value :  1.77258e-04
 Reference value :  1.77260e-04
 Reference value :  1.77261e-04
 Reference value :  1.77264e-04
 Reference value :  1.77267e-04
 Reference value :  1.77272e-04
 Reference value :  1.77283e-04
 Reference value :  1.77302e-04
 Reference value :  1.77340e-04
 Reference value :  1.77410e-04
 Reference value :  1.77500e-04
 Reference value :  1.77500e-04
 Reference value :  1.77500e-04
 Reference value :  1.77500e-04
 Reference value :  1.77500e-04
 Reference value :  1.77500e-04
 Reference value :  1.77500e-04
 Reference value :  1.77500e-04
 Reference value :  1.77500e-04
 Reference value :  1.77500e-04
 Reference value :  1.77500e-04
 Reference value :  1.77501e-04
 Reference value :  1.77501e-04
 Reference value :  1.77501e-04
 Reference value :  1.77502e-04
 Reference value :  1.77503e-04
 Reference value :  1.77503e-04
 Reference value :  1.77504e-04
 Reference value :  1.77505e-04
 Reference value :  1.77506e-04
 Reference value :  1.77507e-04
 Reference value :  1.77508e-04
 Reference value :  1.77510e-04
 Reference value :  1.77511e-04
 Reference value :  1.77512e-04
 Reference value :  1.77514e-04
 Reference value :  1.77516e-04
 Reference value :  1.77517e-04
 Reference value :  1.77519e-04
 Reference value :  1.77523e-04
 Reference value :  1.77528e-04
 Reference value :  1.77538e-04
 Reference value :  1.77555e-04
 Reference value :  1.77587e-04
 Reference value :  1.77645e-04
 Reference value :  1.77750e-04
 Reference value :  1.77750e-04
 Reference value :  1.77750e-04
 Reference value :  1.77750e-04
 Reference value :  1.77750e-04
 Reference value :  1.77750e-04
 Reference value :  1.77750e-04
 Reference value :  1.77750e-04
 Reference value :  1.77750e-04
 Reference value :  1.77750e-04
 Reference value :  1.77750e-04
 Reference value :  1.77750e-04
 Reference value :  1.77750e-04
 Reference value :  1.77751e-04
 Reference value :  1.77751e-04
 Reference value :  1.77751e-04
 Reference value :  1.77752e-04
 Reference value :  1.77752e-04
 Reference value :  1.77753e-04
 Reference value :  1.77754e-04
 Reference value :  1.77755e-04
 Reference value :  1.77756e-04
 Reference value :  1.77757e-04
 Reference value :  1.77758e-04
 Reference value :  1.77759e-04
 Reference value :  1.77761e-04
 Reference value :  1.77762e-04
 Reference value :  1.77763e-04
 Reference value :  1.77766e-04
 Reference value :  1.77768e-04
 Reference value :  1.77772e-04
 Reference value :  1.77778e-04
 Reference value :  1.77790e-04
 Reference value :  1.77811e-04
 Reference value :  1.77851e-04
 Reference value :  1.77924e-04
 Reference value :  1.78000e-04
 Reference value :  1.78000e-04
 Reference value :  1.78000e-04
 Reference value :  1.78000e-04
 Reference value :  1.78000e-04
 Reference value :  1.78000e-04
 Reference value :  1.78000e-04
 Reference value :  1.78000e-04
 Reference value :  1.78000e-04
 Reference value :  1.78000e-04
 Reference value :  1.78000e-04
 Reference value :  1.78001e-04
 Reference value :  1.78001e-04
 Reference value :  1.78001e-04
 Reference value :  1.78002e-04
 Reference value :  1.78003e-04
 Reference value :  1.78003e-04
 Reference value :  1.78004e-04
 Reference value :  1.78005e-04
 Reference value :  1.78006e-04
 Reference value :  1.78007e-04
 Reference value :  1.78008e-04
 Reference value :  1.78009e-04
 Reference value :  1.78010e-04
 Reference value :  1.78011e-04
 Reference value :  1.78012e-04
 Reference value :  1.78014e-04
 Reference value :  1.78015e-04
 Reference value :  1.78017e-04
 Reference value :  1.78018e-04
 Reference value :  1.78020e-04
 Reference value :  1.78022e-04
 Reference value :  1.78024e-04
 Reference value :  1.78027e-04
 Reference value :  1.78030e-04
 Reference value :  1.78035e-04
 Reference value :  1.78042e-04
 Reference value :  1.78050e-04
 Reference value :  1.78056e-04
 Reference value :  1.78062e-04
 Reference value :  1.78070e-04
 Reference value :  1.78083e-04
 Reference value :  1.78101e-04
 Reference value :  1.78132e-04
 Reference value :  1.78169e-04
 Reference value :  1.78212e-04
 Reference value :  1.78250e-04
 Reference value :  1.78250e-04
 Reference value :  1.78250e-04
 Reference value :  1.78250e-04
 Reference value :  1.78250e-04
 Reference value :  1.78250e-04
 Reference value :  1.78250e-04
 Reference value :  1.78250e-04
 Reference value :  1.78250e-04
 Reference value :  1.78250e-04
 Reference value :  1.78250e-04
 Reference value :  1.78250e-04
 Reference value :  1.78250e-04
 Reference value :  1.78251e-04
 Reference value :  1.78251e-04
 Reference value :  1.78251e-04
 Reference value :  1.78252e-04
 Reference value :  1.78252e-04
 Reference value :  1.78253e-04
 Reference value :  1.78254e-04
 Reference value :  1.78255e-04
 Reference value :  1.78256e-04
 Reference value :  1.78258e-04
 Reference value :  1.78259e-04
 Reference value :  1.78261e-04
 Reference value :  1.78264e-04
 Reference value :  1.78267e-04
 Reference value :  1.78272e-04
 Reference value :  1.78282e-04
 Reference value :  1.78298e-04
 Reference value :  1.78330e-04
 Reference value :  1.78384e-04
 Reference value :  1.78494e-04
 Reference value :  1.78500e-04
No. of Data Rows : 27038
ngspice-44 done
