
Note: Compatibility modes selected: hs a


Circuit: ** sch_path: /home/samantha/cace/sar-adc-using-sky130-pdk/runs/run_2025-09-04_10-10-54/parameters/sampling_rate/run_08/sampling_rate.sch

option SCALE: Scale is set to 1e-06 for instance and model parameters
option SCALE: Scale is set to 1e-06 for instance and model parameters
option SCALE: Scale is set to 1e-06 for instance and model parameters
option SCALE: Scale is set to 1e-06 for instance and model parameters
Doing analysis at TEMP = 27.000000 and TNOM = 27.000000

Using KLU as Direct Linear Solver
Operating point simulation skipped by 'uic',
  now using transient initial conditions.
 Reference value :  1.00000e-12
 Reference value :  1.02800e-12
 Reference value :  1.08400e-12
 Reference value :  1.19600e-12
 Reference value :  1.70338e-12
 Reference value :  3.13397e-12
 Reference value :  4.37433e-12
 Reference value :  9.59319e-12
 Reference value :  2.04357e-11
 Reference value :  6.20555e-11
 Reference value :  1.00000e-10
 Reference value :  1.16648e-10
 Reference value :  1.83240e-10
 Reference value :  2.72028e-10
 Reference value :  4.49606e-10
 Reference value :  9.52851e-10
 Reference value :  1.37450e-09
 Reference value :  1.87064e-09
 Reference value :  2.46897e-09
 Reference value :  3.17303e-09
 Reference value :  4.09445e-09
 Reference value :  5.14595e-09
 Reference value :  6.09324e-09
 Reference value :  6.78152e-09
 Reference value :  7.52653e-09
 Reference value :  9.45131e-09
 Reference value :  1.06385e-08
 Reference value :  1.15438e-08
 Reference value :  1.24329e-08
 Reference value :  1.32940e-08
 Reference value :  1.42037e-08
 Reference value :  1.59288e-08
 Reference value :  2.13747e-08
 Reference value :  2.50946e-08
 Reference value :  2.91163e-08
 Reference value :  3.76811e-08
 Reference value :  5.05957e-08
 Reference value :  8.07880e-08
 Reference value :  1.72203e-07
 Reference value :  2.50110e-07
 Reference value :  2.50170e-07
 Reference value :  2.50208e-07
 Reference value :  2.50255e-07
 Reference value :  2.50411e-07
 Reference value :  2.50763e-07
 Reference value :  2.51013e-07
 Reference value :  2.51486e-07
 Reference value :  2.52429e-07
 Reference value :  2.53826e-07
 Reference value :  2.54452e-07
 Reference value :  2.55088e-07
 Reference value :  2.56455e-07
 Reference value :  2.59359e-07
 Reference value :  2.64280e-07
 Reference value :  2.69351e-07
 Reference value :  2.99355e-07
 Reference value :  3.70595e-07
 Reference value :  4.01420e-07
 Reference value :  4.19093e-07
 Reference value :  4.28910e-07
 Reference value :  4.38668e-07
 Reference value :  4.61341e-07
 Reference value :  5.00000e-07
 Reference value :  5.00030e-07
 Reference value :  5.00100e-07
 Reference value :  5.00124e-07
 Reference value :  5.00218e-07
 Reference value :  5.00344e-07
 Reference value :  5.00531e-07
 Reference value :  5.00883e-07
 Reference value :  5.01579e-07
 Reference value :  5.02492e-07
 Reference value :  5.02995e-07
 Reference value :  5.04117e-07
 Reference value :  5.05640e-07
 Reference value :  5.06881e-07
 Reference value :  5.09383e-07
 Reference value :  5.10614e-07
 Reference value :  5.12012e-07
 Reference value :  5.13368e-07
 Reference value :  5.14773e-07
 Reference value :  5.16777e-07
 Reference value :  5.22408e-07
 Reference value :  5.38724e-07
 Reference value :  6.53660e-07
 Reference value :  7.50110e-07
 Reference value :  7.50170e-07
 Reference value :  7.50200e-07
 Reference value :  7.50208e-07
 Reference value :  7.50224e-07
 Reference value :  7.50256e-07
 Reference value :  7.50448e-07
 Reference value :  7.50874e-07
 Reference value :  7.51771e-07
 Reference value :  7.52219e-07
 Reference value :  7.53493e-07
 Reference value :  7.53990e-07
 Reference value :  7.54563e-07
 Reference value :  7.55166e-07
 Reference value :  7.56667e-07
 Reference value :  7.58453e-07
 Reference value :  7.59478e-07
 Reference value :  7.61425e-07
 Reference value :  7.66544e-07
 Reference value :  7.79465e-07
 Reference value :  8.14111e-07
 Reference value :  9.08005e-07
 Reference value :  1.00001e-06
 Reference value :  1.00007e-06
 Reference value :  1.00011e-06
 Reference value :  1.00016e-06
 Reference value :  1.00034e-06
 Reference value :  1.00088e-06
 Reference value :  1.00163e-06
 Reference value :  1.00209e-06
 Reference value :  1.00257e-06
 Reference value :  1.00308e-06
 Reference value :  1.00419e-06
 Reference value :  1.00471e-06
 Reference value :  1.00520e-06
 Reference value :  1.00640e-06
 Reference value :  1.00810e-06
 Reference value :  1.01012e-06
 Reference value :  1.01107e-06
 Reference value :  1.01198e-06
 Reference value :  1.01301e-06
 Reference value :  1.01373e-06
 Reference value :  1.01443e-06
 Reference value :  1.01531e-06
 Reference value :  1.01713e-06
 Reference value :  1.01810e-06
 Reference value :  1.02102e-06
 Reference value :  1.02644e-06
 Reference value :  1.06570e-06
 Reference value :  1.11687e-06
 Reference value :  1.13338e-06
 Reference value :  1.14974e-06
 Reference value :  1.16383e-06
 Reference value :  1.19149e-06
 Reference value :  1.24173e-06
 Reference value :  1.25011e-06
 Reference value :  1.25017e-06
 Reference value :  1.25020e-06
 Reference value :  1.25021e-06
 Reference value :  1.25026e-06
 Reference value :  1.25045e-06
 Reference value :  1.25087e-06
 Reference value :  1.25177e-06
 Reference value :  1.25280e-06
 Reference value :  1.25352e-06
 Reference value :  1.25402e-06
 Reference value :  1.25516e-06
 Reference value :  1.25585e-06
 Reference value :  1.25658e-06
 Reference value :  1.25804e-06
 Reference value :  1.25995e-06
 Reference value :  1.26643e-06
 Reference value :  1.28883e-06
 Reference value :  1.37200e-06
 Reference value :  1.50000e-06
 Reference value :  1.50001e-06
 Reference value :  1.50007e-06
 Reference value :  1.50011e-06
 Reference value :  1.50016e-06
 Reference value :  1.50022e-06
 Reference value :  1.50034e-06
 Reference value :  1.50088e-06
 Reference value :  1.50164e-06
 Reference value :  1.50259e-06
 Reference value :  1.50308e-06
 Reference value :  1.50421e-06
 Reference value :  1.50575e-06
 Reference value :  1.50642e-06
 Reference value :  1.50803e-06
 Reference value :  1.50991e-06
 Reference value :  1.51237e-06
 Reference value :  1.51827e-06
 Reference value :  1.53486e-06
 Reference value :  1.65697e-06
 Reference value :  1.75011e-06
 Reference value :  1.75017e-06
 Reference value :  1.75021e-06
 Reference value :  1.75032e-06
 Reference value :  1.75063e-06
 Reference value :  1.75136e-06
 Reference value :  1.75177e-06
 Reference value :  1.75280e-06
 Reference value :  1.75350e-06
 Reference value :  1.75400e-06
 Reference value :  1.75518e-06
 Reference value :  1.75593e-06
 Reference value :  1.75670e-06
 Reference value :  1.75805e-06
 Reference value :  1.76282e-06
 Reference value :  1.76683e-06
 Reference value :  1.77485e-06
 Reference value :  1.78956e-06
 Reference value :  1.87244e-06
 Reference value :  2.00000e-06
 Reference value :  2.00003e-06
 Reference value :  2.00010e-06
 Reference value :  2.00011e-06
 Reference value :  2.00012e-06
 Reference value :  2.00016e-06
 Reference value :  2.00034e-06
 Reference value :  2.00089e-06
 Reference value :  2.00164e-06
 Reference value :  2.00259e-06
 Reference value :  2.00308e-06
 Reference value :  2.00365e-06
 Reference value :  2.00420e-06
 Reference value :  2.00476e-06
 Reference value :  2.00528e-06
 Reference value :  2.00586e-06
 Reference value :  2.00757e-06
 Reference value :  2.01121e-06
 Reference value :  2.01276e-06
 Reference value :  2.01406e-06
 Reference value :  2.01530e-06
 Reference value :  2.01783e-06
 Reference value :  2.01922e-06
 Reference value :  2.02062e-06
 Reference value :  2.02529e-06
 Reference value :  2.02998e-06
 Reference value :  2.03777e-06
 Reference value :  2.05148e-06
 Reference value :  2.11164e-06
 Reference value :  2.25010e-06
 Reference value :  2.25013e-06
 Reference value :  2.25020e-06
 Reference value :  2.25021e-06
 Reference value :  2.25026e-06
 Reference value :  2.25045e-06
 Reference value :  2.25087e-06
 Reference value :  2.25136e-06
 Reference value :  2.25177e-06
 Reference value :  2.25280e-06
 Reference value :  2.25352e-06
 Reference value :  2.25402e-06
 Reference value :  2.25460e-06
 Reference value :  2.25515e-06
 Reference value :  2.25585e-06
 Reference value :  2.25658e-06
 Reference value :  2.25994e-06
 Reference value :  2.26642e-06
 Reference value :  2.28878e-06
 Reference value :  2.37087e-06
 Reference value :  2.50000e-06
 Reference value :  2.50003e-06
 Reference value :  2.50010e-06
 Reference value :  2.50011e-06
 Reference value :  2.50016e-06
 Reference value :  2.50034e-06
 Reference value :  2.50053e-06
 Reference value :  2.50088e-06
 Reference value :  2.50121e-06
 Reference value :  2.50164e-06
 Reference value :  2.50211e-06
 Reference value :  2.50308e-06
 Reference value :  2.50422e-06
 Reference value :  2.50494e-06
 Reference value :  2.50578e-06
 Reference value :  2.50645e-06
 Reference value :  2.50807e-06
 Reference value :  2.50902e-06
 Reference value :  2.50994e-06
 Reference value :  2.51113e-06
 Reference value :  2.51486e-06
 Reference value :  2.51831e-06
 Reference value :  2.53457e-06
 Reference value :  2.55152e-06
 Reference value :  2.58540e-06
 Reference value :  2.75010e-06
 Reference value :  2.75011e-06
 Reference value :  2.75013e-06
 Reference value :  2.75017e-06
 Reference value :  2.75020e-06
 Reference value :  2.75022e-06
 Reference value :  2.75032e-06
 Reference value :  2.75045e-06
 Reference value :  2.75063e-06
 Reference value :  2.75087e-06
 Reference value :  2.75136e-06
 Reference value :  2.75177e-06
 Reference value :  2.75222e-06
 Reference value :  2.75280e-06
 Reference value :  2.75350e-06
 Reference value :  2.75400e-06
 Reference value :  2.75457e-06
 Reference value :  2.75518e-06
 Reference value :  2.75593e-06
 Reference value :  2.75669e-06
 Reference value :  2.75806e-06
 Reference value :  2.76282e-06
 Reference value :  2.76681e-06
 Reference value :  2.77479e-06
 Reference value :  2.78953e-06
 Reference value :  2.81686e-06
 Reference value :  2.87152e-06
 Reference value :  2.98085e-06
 Reference value :  3.00000e-06
 Reference value :  3.00001e-06
 Reference value :  3.00003e-06
 Reference value :  3.00007e-06
 Reference value :  3.00010e-06
 Reference value :  3.00011e-06
 Reference value :  3.00012e-06
 Reference value :  3.00016e-06
 Reference value :  3.00022e-06
 Reference value :  3.00034e-06
 Reference value :  3.00053e-06
 Reference value :  3.00089e-06
 Reference value :  3.00121e-06
 Reference value :  3.00164e-06
 Reference value :  3.00211e-06
 Reference value :  3.00259e-06
 Reference value :  3.00308e-06
 Reference value :  3.00365e-06
 Reference value :  3.00420e-06
 Reference value :  3.00476e-06
 Reference value :  3.00528e-06
 Reference value :  3.00586e-06
 Reference value :  3.00675e-06
 Reference value :  3.00757e-06
 Reference value :  3.00919e-06
 Reference value :  3.01121e-06
 Reference value :  3.01276e-06
 Reference value :  3.01406e-06
 Reference value :  3.01530e-06
 Reference value :  3.01655e-06
 Reference value :  3.01783e-06
 Reference value :  3.02061e-06
 Reference value :  3.02294e-06
 Reference value :  3.02996e-06
 Reference value :  3.03769e-06
 Reference value :  3.04737e-06
 Reference value :  3.05925e-06
 Reference value :  3.07003e-06
 Reference value :  3.07819e-06
 Reference value :  3.08588e-06
 Reference value :  3.09286e-06
 Reference value :  3.10790e-06
 Reference value :  3.12758e-06
 Reference value :  3.14382e-06
 Reference value :  3.20798e-06
 Reference value :  3.23719e-06
 Reference value :  3.25010e-06
 Reference value :  3.25011e-06
 Reference value :  3.25013e-06
 Reference value :  3.25020e-06
 Reference value :  3.25021e-06
 Reference value :  3.25026e-06
 Reference value :  3.25032e-06
 Reference value :  3.25045e-06
 Reference value :  3.25063e-06
 Reference value :  3.25087e-06
 Reference value :  3.25177e-06
 Reference value :  3.25222e-06
 Reference value :  3.25280e-06
 Reference value :  3.25347e-06
 Reference value :  3.25397e-06
 Reference value :  3.25454e-06
 Reference value :  3.25508e-06
 Reference value :  3.25577e-06
 Reference value :  3.25651e-06
 Reference value :  3.25798e-06
 Reference value :  3.25978e-06
 Reference value :  3.26253e-06
 Reference value :  3.26507e-06
 Reference value :  3.27135e-06
 Reference value :  3.27696e-06
 Reference value :  3.28424e-06
 Reference value :  3.30063e-06
 Reference value :  3.34476e-06
 Reference value :  3.39392e-06
 Reference value :  3.48082e-06
 Reference value :  3.50000e-06
 Reference value :  3.50001e-06
 Reference value :  3.50007e-06
 Reference value :  3.50011e-06
 Reference value :  3.50016e-06
 Reference value :  3.50022e-06
 Reference value :  3.50034e-06
 Reference value :  3.50053e-06
 Reference value :  3.50088e-06
 Reference value :  3.50121e-06
 Reference value :  3.50164e-06
 Reference value :  3.50211e-06
 Reference value :  3.50259e-06
 Reference value :  3.50308e-06
 Reference value :  3.50365e-06
 Reference value :  3.50422e-06
 Reference value :  3.50494e-06
 Reference value :  3.50577e-06
 Reference value :  3.50645e-06
 Reference value :  3.50719e-06
 Reference value :  3.50807e-06
 Reference value :  3.50902e-06
 Reference value :  3.50994e-06
 Reference value :  3.51113e-06
 Reference value :  3.51484e-06
 Reference value :  3.52422e-06
 Reference value :  3.55109e-06
 Reference value :  3.58455e-06
 Reference value :  3.65146e-06
 Reference value :  3.75010e-06
 Reference value :  3.75011e-06
 Reference value :  3.75013e-06
 Reference value :  3.75017e-06
 Reference value :  3.75020e-06
 Reference value :  3.75022e-06
 Reference value :  3.75032e-06
 Reference value :  3.75045e-06
 Reference value :  3.75063e-06
 Reference value :  3.75087e-06
 Reference value :  3.75136e-06
 Reference value :  3.75177e-06
 Reference value :  3.75222e-06
 Reference value :  3.75280e-06
 Reference value :  3.75350e-06
 Reference value :  3.75400e-06
 Reference value :  3.75457e-06
 Reference value :  3.75518e-06
 Reference value :  3.75593e-06
 Reference value :  3.75669e-06
 Reference value :  3.76009e-06
 Reference value :  3.76281e-06
 Reference value :  3.77475e-06
 Reference value :  3.78949e-06
 Reference value :  3.81673e-06
 Reference value :  3.87119e-06
 Reference value :  4.00000e-06
 Reference value :  4.00003e-06
 Reference value :  4.00007e-06
 Reference value :  4.00010e-06
 Reference value :  4.00012e-06
 Reference value :  4.00016e-06
 Reference value :  4.00022e-06
 Reference value :  4.00034e-06
 Reference value :  4.00089e-06
 Reference value :  4.00164e-06
 Reference value :  4.00211e-06
 Reference value :  4.00308e-06
 Reference value :  4.00420e-06
 Reference value :  4.00476e-06
 Reference value :  4.00528e-06
 Reference value :  4.00586e-06
 Reference value :  4.00757e-06
 Reference value :  4.00919e-06
 Reference value :  4.01119e-06
 Reference value :  4.01269e-06
 Reference value :  4.01399e-06
 Reference value :  4.01525e-06
 Reference value :  4.01651e-06
 Reference value :  4.01781e-06
 Reference value :  4.01911e-06
 Reference value :  4.02051e-06
 Reference value :  4.02513e-06
 Reference value :  4.03320e-06
 Reference value :  4.03709e-06
 Reference value :  4.04043e-06
 Reference value :  4.04452e-06
 Reference value :  4.04730e-06
 Reference value :  4.05046e-06
 Reference value :  4.05425e-06
 Reference value :  4.05822e-06
 Reference value :  4.06444e-06
 Reference value :  4.07767e-06
 Reference value :  4.08506e-06
 Reference value :  4.09467e-06
 Reference value :  4.11034e-06
 Reference value :  4.17652e-06
 Reference value :  4.25011e-06
 Reference value :  4.25013e-06
 Reference value :  4.25017e-06
 Reference value :  4.25020e-06
 Reference value :  4.25022e-06
 Reference value :  4.25026e-06
 Reference value :  4.25032e-06
 Reference value :  4.25042e-06
 Reference value :  4.25061e-06
 Reference value :  4.25082e-06
 Reference value :  4.25151e-06
 Reference value :  4.25195e-06
 Reference value :  4.25306e-06
 Reference value :  4.25371e-06
 Reference value :  4.25423e-06
 Reference value :  4.25482e-06
 Reference value :  4.25536e-06
 Reference value :  4.25610e-06
 Reference value :  4.25690e-06
 Reference value :  4.25838e-06
 Reference value :  4.26056e-06
 Reference value :  4.26338e-06
 Reference value :  4.26780e-06
 Reference value :  4.29294e-06
 Reference value :  4.38110e-06
 Reference value :  4.49746e-06
 Reference value :  4.50001e-06
 Reference value :  4.50003e-06
 Reference value :  4.50007e-06
 Reference value :  4.50010e-06
 Reference value :  4.50011e-06
 Reference value :  4.50012e-06
 Reference value :  4.50016e-06
 Reference value :  4.50022e-06
 Reference value :  4.50034e-06
 Reference value :  4.50057e-06
 Reference value :  4.50096e-06
 Reference value :  4.50138e-06
 Reference value :  4.50185e-06
 Reference value :  4.50294e-06
 Reference value :  4.50347e-06
 Reference value :  4.50407e-06
 Reference value :  4.50468e-06
 Reference value :  4.50545e-06
 Reference value :  4.50603e-06
 Reference value :  4.50678e-06
 Reference value :  4.50859e-06
 Reference value :  4.50966e-06
 Reference value :  4.51063e-06
 Reference value :  4.51203e-06
 Reference value :  4.51614e-06
 Reference value :  4.52002e-06
 Reference value :  4.52648e-06
 Reference value :  4.55835e-06
 Reference value :  4.68174e-06
 Reference value :  4.75011e-06
 Reference value :  4.75013e-06
 Reference value :  4.75017e-06
 Reference value :  4.75020e-06
 Reference value :  4.75022e-06
 Reference value :  4.75032e-06
 Reference value :  4.75061e-06
 Reference value :  4.75082e-06
 Reference value :  4.75111e-06
 Reference value :  4.75151e-06
 Reference value :  4.75195e-06
 Reference value :  4.75239e-06
 Reference value :  4.75306e-06
 Reference value :  4.75373e-06
 Reference value :  4.75425e-06
 Reference value :  4.75485e-06
 Reference value :  4.75543e-06
 Reference value :  4.75616e-06
 Reference value :  4.75692e-06
 Reference value :  4.75769e-06
 Reference value :  4.75867e-06
 Reference value :  4.75967e-06
 Reference value :  4.76157e-06
 Reference value :  4.76665e-06
 Reference value :  4.77140e-06
 Reference value :  4.77835e-06
 Reference value :  4.80682e-06
 Reference value :  4.87634e-06
 Reference value :  4.94222e-06
 Reference value :  5.00001e-06
 Reference value :  5.00003e-06
 Reference value :  5.00007e-06
 Reference value :  5.00010e-06
 Reference value :  5.00011e-06
 Reference value :  5.00012e-06
 Reference value :  5.00016e-06
 Reference value :  5.00022e-06
 Reference value :  5.00034e-06
 Reference value :  5.00057e-06
 Reference value :  5.00096e-06
 Reference value :  5.00138e-06
 Reference value :  5.00185e-06
 Reference value :  5.00294e-06
 Reference value :  5.00349e-06
 Reference value :  5.00474e-06
 Reference value :  5.00530e-06
 Reference value :  5.00588e-06
 Reference value :  5.00739e-06
 Reference value :  5.00849e-06
 Reference value :  5.00954e-06
 Reference value :  5.01063e-06
 Reference value :  5.01172e-06
 Reference value :  5.01285e-06
 Reference value :  5.01371e-06
 Reference value :  5.01453e-06
 Reference value :  5.01551e-06
 Reference value :  5.01653e-06
 Reference value :  5.01745e-06
 Reference value :  5.01847e-06
 Reference value :  5.01957e-06
 Reference value :  5.02133e-06
 Reference value :  5.02765e-06
 Reference value :  5.04186e-06
 Reference value :  5.05736e-06
 Reference value :  5.06413e-06
 Reference value :  5.07165e-06
 Reference value :  5.07891e-06
 Reference value :  5.08677e-06
 Reference value :  5.09491e-06
 Reference value :  5.11296e-06
 Reference value :  5.12327e-06
 Reference value :  5.14389e-06
 Reference value :  5.19362e-06
 Reference value :  5.21812e-06
 Reference value :  5.25010e-06
 Reference value :  5.25011e-06
 Reference value :  5.25013e-06
 Reference value :  5.25017e-06
 Reference value :  5.25020e-06
 Reference value :  5.25021e-06
 Reference value :  5.25026e-06
 Reference value :  5.25032e-06
 Reference value :  5.25061e-06
 Reference value :  5.25110e-06
 Reference value :  5.25152e-06
 Reference value :  5.25196e-06
 Reference value :  5.25242e-06
 Reference value :  5.25309e-06
 Reference value :  5.25376e-06
 Reference value :  5.25429e-06
 Reference value :  5.25489e-06
 Reference value :  5.25545e-06
 Reference value :  5.25621e-06
 Reference value :  5.25703e-06
 Reference value :  5.25854e-06
 Reference value :  5.26081e-06
 Reference value :  5.26369e-06
 Reference value :  5.26848e-06
 Reference value :  5.27805e-06
 Reference value :  5.29606e-06
 Reference value :  5.39786e-06
 Reference value :  5.50001e-06
 Reference value :  5.50003e-06
 Reference value :  5.50007e-06
 Reference value :  5.50010e-06
 Reference value :  5.50011e-06
 Reference value :  5.50012e-06
 Reference value :  5.50016e-06
 Reference value :  5.50022e-06
 Reference value :  5.50034e-06
 Reference value :  5.50096e-06
 Reference value :  5.50138e-06
 Reference value :  5.50185e-06
 Reference value :  5.50241e-06
 Reference value :  5.50347e-06
 Reference value :  5.50407e-06
 Reference value :  5.50468e-06
 Reference value :  5.50545e-06
 Reference value :  5.50603e-06
 Reference value :  5.50678e-06
 Reference value :  5.50772e-06
 Reference value :  5.50859e-06
 Reference value :  5.50965e-06
 Reference value :  5.51062e-06
 Reference value :  5.51202e-06
 Reference value :  5.51611e-06
 Reference value :  5.51996e-06
 Reference value :  5.52637e-06
 Reference value :  5.55778e-06
 Reference value :  5.59821e-06
 Reference value :  5.75010e-06
 Reference value :  5.75011e-06
 Reference value :  5.75013e-06
 Reference value :  5.75020e-06
 Reference value :  5.75022e-06
 Reference value :  5.75032e-06
 Reference value :  5.75042e-06
 Reference value :  5.75061e-06
 Reference value :  5.75082e-06
 Reference value :  5.75111e-06
 Reference value :  5.75151e-06
 Reference value :  5.75195e-06
 Reference value :  5.75306e-06
 Reference value :  5.75374e-06
 Reference value :  5.75426e-06
 Reference value :  5.75485e-06
 Reference value :  5.75544e-06
 Reference value :  5.75616e-06
 Reference value :  5.75771e-06
 Reference value :  5.75879e-06
 Reference value :  5.76180e-06
 Reference value :  5.76706e-06
 Reference value :  5.77959e-06
 Reference value :  5.79219e-06
 Reference value :  5.81086e-06
 Reference value :  5.84116e-06
 Reference value :  5.96374e-06
 Reference value :  6.00001e-06
 Reference value :  6.00003e-06
 Reference value :  6.00007e-06
 Reference value :  6.00010e-06
 Reference value :  6.00011e-06
 Reference value :  6.00012e-06
 Reference value :  6.00016e-06
 Reference value :  6.00022e-06
 Reference value :  6.00034e-06
 Reference value :  6.00057e-06
 Reference value :  6.00096e-06
 Reference value :  6.00138e-06
 Reference value :  6.00185e-06
 Reference value :  6.00241e-06
 Reference value :  6.00294e-06
 Reference value :  6.00349e-06
 Reference value :  6.00408e-06
 Reference value :  6.00474e-06
 Reference value :  6.00530e-06
 Reference value :  6.00588e-06
 Reference value :  6.00739e-06
 Reference value :  6.00849e-06
 Reference value :  6.00954e-06
 Reference value :  6.01062e-06
 Reference value :  6.01172e-06
 Reference value :  6.01285e-06
 Reference value :  6.01371e-06
 Reference value :  6.01550e-06
 Reference value :  6.01652e-06
 Reference value :  6.01846e-06
 Reference value :  6.02133e-06
 Reference value :  6.02756e-06
 Reference value :  6.03369e-06
 Reference value :  6.03905e-06
 Reference value :  6.04462e-06
 Reference value :  6.05111e-06
 Reference value :  6.05834e-06
 Reference value :  6.06869e-06
 Reference value :  6.08247e-06
 Reference value :  6.13139e-06
 Reference value :  6.20881e-06
 Reference value :  6.24341e-06
 Reference value :  6.25010e-06
 Reference value :  6.25011e-06
 Reference value :  6.25013e-06
 Reference value :  6.25017e-06
 Reference value :  6.25020e-06
 Reference value :  6.25021e-06
 Reference value :  6.25022e-06
 Reference value :  6.25026e-06
 Reference value :  6.25032e-06
 Reference value :  6.25042e-06
 Reference value :  6.25061e-06
 Reference value :  6.25079e-06
 Reference value :  6.25110e-06
 Reference value :  6.25152e-06
 Reference value :  6.25196e-06
 Reference value :  6.25242e-06
 Reference value :  6.25309e-06
 Reference value :  6.25376e-06
 Reference value :  6.25429e-06
 Reference value :  6.25489e-06
 Reference value :  6.25545e-06
 Reference value :  6.25621e-06
 Reference value :  6.25703e-06
 Reference value :  6.25854e-06
 Reference value :  6.26369e-06
 Reference value :  6.27806e-06
 Reference value :  6.29598e-06
 Reference value :  6.39737e-06
 Reference value :  6.50001e-06
 Reference value :  6.50003e-06
 Reference value :  6.50007e-06
 Reference value :  6.50010e-06
 Reference value :  6.50012e-06
 Reference value :  6.50016e-06
 Reference value :  6.50022e-06
 Reference value :  6.50034e-06
 Reference value :  6.50057e-06
 Reference value :  6.50096e-06
 Reference value :  6.50138e-06
 Reference value :  6.50185e-06
 Reference value :  6.50241e-06
 Reference value :  6.50294e-06
 Reference value :  6.50347e-06
 Reference value :  6.50407e-06
 Reference value :  6.50468e-06
 Reference value :  6.50545e-06
 Reference value :  6.50603e-06
 Reference value :  6.50678e-06
 Reference value :  6.50772e-06
 Reference value :  6.50859e-06
 Reference value :  6.50965e-06
 Reference value :  6.51201e-06
 Reference value :  6.51345e-06
 Reference value :  6.51609e-06
 Reference value :  6.51992e-06
 Reference value :  6.52630e-06
 Reference value :  6.53744e-06
 Reference value :  6.55744e-06
 Reference value :  6.59745e-06
 Reference value :  6.75010e-06
 Reference value :  6.75011e-06
 Reference value :  6.75017e-06
 Reference value :  6.75021e-06
 Reference value :  6.75022e-06
 Reference value :  6.75032e-06
 Reference value :  6.75042e-06
 Reference value :  6.75082e-06
 Reference value :  6.75111e-06
 Reference value :  6.75151e-06
 Reference value :  6.75195e-06
 Reference value :  6.75240e-06
 Reference value :  6.75306e-06
 Reference value :  6.75374e-06
 Reference value :  6.75426e-06
 Reference value :  6.75485e-06
 Reference value :  6.75544e-06
 Reference value :  6.75616e-06
 Reference value :  6.75771e-06
 Reference value :  6.75879e-06
 Reference value :  6.75981e-06
 Reference value :  6.76180e-06
 Reference value :  6.76369e-06
 Reference value :  6.77218e-06
 Reference value :  6.77958e-06
 Reference value :  6.81085e-06
 Reference value :  6.88884e-06
 Reference value :  6.96367e-06
 Reference value :  7.00000e-06
 Reference value :  7.00001e-06
 Reference value :  7.00003e-06
 Reference value :  7.00010e-06
 Reference value :  7.00012e-06
 Reference value :  7.00016e-06
 Reference value :  7.00022e-06
 Reference value :  7.00034e-06
 Reference value :  7.00057e-06
 Reference value :  7.00096e-06
 Reference value :  7.00138e-06
 Reference value :  7.00185e-06
 Reference value :  7.00241e-06
 Reference value :  7.00294e-06
 Reference value :  7.00349e-06
 Reference value :  7.00408e-06
 Reference value :  7.00474e-06
 Reference value :  7.00530e-06
 Reference value :  7.00588e-06
 Reference value :  7.00662e-06
 Reference value :  7.00739e-06
 Reference value :  7.00849e-06
 Reference value :  7.01062e-06
 Reference value :  7.01172e-06
 Reference value :  7.01285e-06
 Reference value :  7.01371e-06
 Reference value :  7.01551e-06
 Reference value :  7.01652e-06
 Reference value :  7.01745e-06
 Reference value :  7.01847e-06
 Reference value :  7.01956e-06
 Reference value :  7.02135e-06
 Reference value :  7.02342e-06
 Reference value :  7.02758e-06
 Reference value :  7.03272e-06
 Reference value :  7.03801e-06
 Reference value :  7.04301e-06
 Reference value :  7.04849e-06
 Reference value :  7.05379e-06
 Reference value :  7.05930e-06
 Reference value :  7.07033e-06
 Reference value :  7.08069e-06
 Reference value :  7.09281e-06
 Reference value :  7.11704e-06
 Reference value :  7.16523e-06
 Reference value :  7.23538e-06
 Reference value :  7.25010e-06
 Reference value :  7.25011e-06
 Reference value :  7.25013e-06
 Reference value :  7.25017e-06
 Reference value :  7.25020e-06
 Reference value :  7.25021e-06
 Reference value :  7.25022e-06
 Reference value :  7.25026e-06
 Reference value :  7.25032e-06
 Reference value :  7.25061e-06
 Reference value :  7.25079e-06
 Reference value :  7.25110e-06
 Reference value :  7.25152e-06
 Reference value :  7.25196e-06
 Reference value :  7.25242e-06
 Reference value :  7.25309e-06
 Reference value :  7.25377e-06
 Reference value :  7.25430e-06
 Reference value :  7.25491e-06
 Reference value :  7.25547e-06
 Reference value :  7.25622e-06
 Reference value :  7.25703e-06
 Reference value :  7.25853e-06
 Reference value :  7.26369e-06
 Reference value :  7.26850e-06
 Reference value :  7.27813e-06
 Reference value :  7.29600e-06
 Reference value :  7.32990e-06
 Reference value :  7.39770e-06
 Reference value :  7.50000e-06
 Reference value :  7.50001e-06
 Reference value :  7.50003e-06
 Reference value :  7.50007e-06
 Reference value :  7.50010e-06
 Reference value :  7.50012e-06
 Reference value :  7.50016e-06
 Reference value :  7.50022e-06
 Reference value :  7.50034e-06
 Reference value :  7.50057e-06
 Reference value :  7.50096e-06
 Reference value :  7.50138e-06
 Reference value :  7.50185e-06
 Reference value :  7.50242e-06
 Reference value :  7.50294e-06
 Reference value :  7.50348e-06
 Reference value :  7.50407e-06
 Reference value :  7.50473e-06
 Reference value :  7.50548e-06
 Reference value :  7.50606e-06
 Reference value :  7.50679e-06
 Reference value :  7.50769e-06
 Reference value :  7.50858e-06
 Reference value :  7.50961e-06
 Reference value :  7.51057e-06
 Reference value :  7.51189e-06
 Reference value :  7.51328e-06
 Reference value :  7.51944e-06
 Reference value :  7.53599e-06
 Reference value :  7.58928e-06
 Reference value :  7.75010e-06
 Reference value :  7.75011e-06
 Reference value :  7.75013e-06
 Reference value :  7.75017e-06
 Reference value :  7.75020e-06
 Reference value :  7.75021e-06
 Reference value :  7.75026e-06
 Reference value :  7.75032e-06
 Reference value :  7.75061e-06
 Reference value :  7.75082e-06
 Reference value :  7.75111e-06
 Reference value :  7.75151e-06
 Reference value :  7.75195e-06
 Reference value :  7.75240e-06
 Reference value :  7.75306e-06
 Reference value :  7.75374e-06
 Reference value :  7.75426e-06
 Reference value :  7.75486e-06
 Reference value :  7.75544e-06
 Reference value :  7.75617e-06
 Reference value :  7.75693e-06
 Reference value :  7.75845e-06
 Reference value :  7.76065e-06
 Reference value :  7.76802e-06
 Reference value :  7.79311e-06
 Reference value :  7.82277e-06
 Reference value :  7.98455e-06
 Reference value :  8.00000e-06
 Reference value :  8.00001e-06
 Reference value :  8.00003e-06
 Reference value :  8.00010e-06
 Reference value :  8.00012e-06
 Reference value :  8.00016e-06
 Reference value :  8.00022e-06
 Reference value :  8.00034e-06
 Reference value :  8.00057e-06
 Reference value :  8.00096e-06
 Reference value :  8.00185e-06
 Reference value :  8.00241e-06
 Reference value :  8.00294e-06
 Reference value :  8.00349e-06
 Reference value :  8.00408e-06
 Reference value :  8.00469e-06
 Reference value :  8.00520e-06
 Reference value :  8.00577e-06
 Reference value :  8.00652e-06
 Reference value :  8.00730e-06
 Reference value :  8.00805e-06
 Reference value :  8.00891e-06
 Reference value :  8.00989e-06
 Reference value :  8.01308e-06
 Reference value :  8.01733e-06
 Reference value :  8.03919e-06
 Reference value :  8.12663e-06
 Reference value :  8.24321e-06
 Reference value :  8.25010e-06
 Reference value :  8.25011e-06
 Reference value :  8.25013e-06
 Reference value :  8.25017e-06
 Reference value :  8.25020e-06
 Reference value :  8.25021e-06
 Reference value :  8.25026e-06
 Reference value :  8.25032e-06
 Reference value :  8.25045e-06
 Reference value :  8.25063e-06
 Reference value :  8.25083e-06
 Reference value :  8.25122e-06
 Reference value :  8.25160e-06
 Reference value :  8.25204e-06
 Reference value :  8.25250e-06
 Reference value :  8.25324e-06
 Reference value :  8.25395e-06
 Reference value :  8.25580e-06
 Reference value :  8.25679e-06
 Reference value :  8.25845e-06
 Reference value :  8.26023e-06
 Reference value :  8.26703e-06
 Reference value :  8.28991e-06
 Reference value :  8.38145e-06
 Reference value :  8.50001e-06
 Reference value :  8.50007e-06
 Reference value :  8.50010e-06
 Reference value :  8.50012e-06
 Reference value :  8.50022e-06
 Reference value :  8.50057e-06
 Reference value :  8.50141e-06
 Reference value :  8.50196e-06
 Reference value :  8.50248e-06
 Reference value :  8.50309e-06
 Reference value :  8.50367e-06
 Reference value :  8.50473e-06
 Reference value :  8.50594e-06
 Reference value :  8.50664e-06
 Reference value :  8.50803e-06
 Reference value :  8.50976e-06
 Reference value :  8.51279e-06
 Reference value :  8.51803e-06
 Reference value :  8.52377e-06
 Reference value :  8.52970e-06
 Reference value :  8.53370e-06
 Reference value :  8.53709e-06
 Reference value :  8.53937e-06
 Reference value :  8.54412e-06
 Reference value :  8.54955e-06
 Reference value :  8.55674e-06
 Reference value :  8.56813e-06
 Reference value :  8.58615e-06
 Reference value :  8.60175e-06
 Reference value :  8.62250e-06
 Reference value :  8.64476e-06
 Reference value :  8.67463e-06
 Reference value :  8.72070e-06
 Reference value :  8.75010e-06
 Reference value :  8.75013e-06
 Reference value :  8.75020e-06
 Reference value :  8.75022e-06
 Reference value :  8.75032e-06
 Reference value :  8.75045e-06
 Reference value :  8.75063e-06
 Reference value :  8.75087e-06
 Reference value :  8.75136e-06
 Reference value :  8.75177e-06
 Reference value :  8.75222e-06
 Reference value :  8.75281e-06
 Reference value :  8.75350e-06
 Reference value :  8.75400e-06
 Reference value :  8.75458e-06
 Reference value :  8.75512e-06
 Reference value :  8.75578e-06
 Reference value :  8.75649e-06
 Reference value :  8.75792e-06
 Reference value :  8.76245e-06
 Reference value :  8.77308e-06
 Reference value :  8.81323e-06
 Reference value :  8.96912e-06
 Reference value :  9.00000e-06
No. of Data Rows : 1354
ngspice-44 done
