
Note: Compatibility modes selected: hs a


Circuit: ** sch_path: /home/samantha/cace/sar-adc-using-sky130-pdk/runs/run_2025-09-04_09-40-16/parameters/sampling_rate/run_6/sampling_rate.sch

option SCALE: Scale is set to 1e-06 for instance and model parameters
option SCALE: Scale is set to 1e-06 for instance and model parameters
option SCALE: Scale is set to 1e-06 for instance and model parameters
option SCALE: Scale is set to 1e-06 for instance and model parameters
Doing analysis at TEMP = 27.000000 and TNOM = 27.000000

Using KLU as Direct Linear Solver
Operating point simulation skipped by 'uic',
  now using transient initial conditions.
 Reference value :  1.00000e-12
 Reference value :  1.02630e-12
 Reference value :  1.18407e-12
 Reference value :  1.64396e-12
 Reference value :  3.07867e-12
 Reference value :  6.10350e-12
 Reference value :  1.36863e-11
 Reference value :  3.05518e-11
 Reference value :  9.80137e-11
 Reference value :  1.03973e-10
 Reference value :  1.24169e-10
 Reference value :  1.97678e-10
 Reference value :  4.91714e-10
 Reference value :  1.10964e-09
 Reference value :  1.57834e-09
 Reference value :  2.88189e-09
 Reference value :  3.67401e-09
 Reference value :  4.41180e-09
 Reference value :  5.23609e-09
 Reference value :  6.33352e-09
 Reference value :  7.19437e-09
 Reference value :  8.27724e-09
 Reference value :  8.95398e-09
 Reference value :  9.65086e-09
 Reference value :  1.04992e-08
 Reference value :  1.13829e-08
 Reference value :  1.21857e-08
 Reference value :  1.29842e-08
 Reference value :  1.46326e-08
 Reference value :  1.78646e-08
 Reference value :  2.52343e-08
 Reference value :  2.96576e-08
 Reference value :  3.37918e-08
 Reference value :  3.78966e-08
 Reference value :  4.31966e-08
 Reference value :  5.70955e-08
 Reference value :  9.30253e-08
 Reference value :  1.31162e-07
 Reference value :  2.50100e-07
 Reference value :  2.50110e-07
 Reference value :  2.50130e-07
 Reference value :  2.50170e-07
 Reference value :  2.50200e-07
 Reference value :  2.50207e-07
 Reference value :  2.50222e-07
 Reference value :  2.50252e-07
 Reference value :  2.50307e-07
 Reference value :  2.50521e-07
 Reference value :  2.50914e-07
 Reference value :  2.51226e-07
 Reference value :  2.51636e-07
 Reference value :  2.52677e-07
 Reference value :  2.53418e-07
 Reference value :  2.53967e-07
 Reference value :  2.55233e-07
 Reference value :  2.55884e-07
 Reference value :  2.56688e-07
 Reference value :  2.57829e-07
 Reference value :  2.61131e-07
 Reference value :  2.69481e-07
 Reference value :  2.98778e-07
 Reference value :  4.10553e-07
 Reference value :  5.00010e-07
 Reference value :  5.00070e-07
 Reference value :  5.00108e-07
 Reference value :  5.00155e-07
 Reference value :  5.00335e-07
 Reference value :  5.00813e-07
 Reference value :  5.01270e-07
 Reference value :  5.02177e-07
 Reference value :  5.03240e-07
 Reference value :  5.04472e-07
 Reference value :  5.06231e-07
 Reference value :  5.08778e-07
 Reference value :  5.09979e-07
 Reference value :  5.11234e-07
 Reference value :  5.12794e-07
 Reference value :  5.14507e-07
 Reference value :  5.16030e-07
 Reference value :  5.17738e-07
 Reference value :  5.20108e-07
 Reference value :  5.22583e-07
 Reference value :  5.33585e-07
 Reference value :  5.42790e-07
 Reference value :  5.61200e-07
 Reference value :  6.71658e-07
 Reference value :  7.50100e-07
 Reference value :  7.50130e-07
 Reference value :  7.50200e-07
 Reference value :  7.50223e-07
 Reference value :  7.50316e-07
 Reference value :  7.50571e-07
 Reference value :  7.51193e-07
 Reference value :  7.51624e-07
 Reference value :  7.52670e-07
 Reference value :  7.53420e-07
 Reference value :  7.53946e-07
 Reference value :  7.54540e-07
 Reference value :  7.55092e-07
 Reference value :  7.55709e-07
 Reference value :  7.56530e-07
 Reference value :  7.59010e-07
 Reference value :  7.72142e-07
 Reference value :  8.15748e-07
 Reference value :  9.90174e-07
 Reference value :  1.00000e-06
 Reference value :  1.00003e-06
 Reference value :  1.00010e-06
 Reference value :  1.00012e-06
 Reference value :  1.00022e-06
 Reference value :  1.00033e-06
 Reference value :  1.00081e-06
 Reference value :  1.00132e-06
 Reference value :  1.00220e-06
 Reference value :  1.00270e-06
 Reference value :  1.00330e-06
 Reference value :  1.00443e-06
 Reference value :  1.00556e-06
 Reference value :  1.00618e-06
 Reference value :  1.00682e-06
 Reference value :  1.00866e-06
 Reference value :  1.01004e-06
 Reference value :  1.01150e-06
 Reference value :  1.01276e-06
 Reference value :  1.01381e-06
 Reference value :  1.01482e-06
 Reference value :  1.01589e-06
 Reference value :  1.01696e-06
 Reference value :  1.01927e-06
 Reference value :  1.02255e-06
 Reference value :  1.02583e-06
 Reference value :  1.04139e-06
 Reference value :  1.09479e-06
 Reference value :  1.23526e-06
 Reference value :  1.25010e-06
 Reference value :  1.25011e-06
 Reference value :  1.25013e-06
 Reference value :  1.25017e-06
 Reference value :  1.25020e-06
 Reference value :  1.25021e-06
 Reference value :  1.25025e-06
 Reference value :  1.25032e-06
 Reference value :  1.25057e-06
 Reference value :  1.25080e-06
 Reference value :  1.25119e-06
 Reference value :  1.25162e-06
 Reference value :  1.25210e-06
 Reference value :  1.25267e-06
 Reference value :  1.25342e-06
 Reference value :  1.25395e-06
 Reference value :  1.25515e-06
 Reference value :  1.25674e-06
 Reference value :  1.25952e-06
 Reference value :  1.26633e-06
 Reference value :  1.29167e-06
 Reference value :  1.39301e-06
 Reference value :  1.50001e-06
 Reference value :  1.50007e-06
 Reference value :  1.50011e-06
 Reference value :  1.50012e-06
 Reference value :  1.50022e-06
 Reference value :  1.50049e-06
 Reference value :  1.50127e-06
 Reference value :  1.50174e-06
 Reference value :  1.50218e-06
 Reference value :  1.50322e-06
 Reference value :  1.50381e-06
 Reference value :  1.50441e-06
 Reference value :  1.50507e-06
 Reference value :  1.50616e-06
 Reference value :  1.50718e-06
 Reference value :  1.50831e-06
 Reference value :  1.50933e-06
 Reference value :  1.51155e-06
 Reference value :  1.51554e-06
 Reference value :  1.52662e-06
 Reference value :  1.56346e-06
 Reference value :  1.69047e-06
 Reference value :  1.75010e-06
 Reference value :  1.75013e-06
 Reference value :  1.75020e-06
 Reference value :  1.75022e-06
 Reference value :  1.75032e-06
 Reference value :  1.75058e-06
 Reference value :  1.75122e-06
 Reference value :  1.75164e-06
 Reference value :  1.75269e-06
 Reference value :  1.75347e-06
 Reference value :  1.75399e-06
 Reference value :  1.75459e-06
 Reference value :  1.75515e-06
 Reference value :  1.75662e-06
 Reference value :  1.75923e-06
 Reference value :  1.76547e-06
 Reference value :  1.78933e-06
 Reference value :  1.88474e-06
 Reference value :  2.00001e-06
 Reference value :  2.00003e-06
 Reference value :  2.00007e-06
 Reference value :  2.00011e-06
 Reference value :  2.00012e-06
 Reference value :  2.00022e-06
 Reference value :  2.00033e-06
 Reference value :  2.00049e-06
 Reference value :  2.00081e-06
 Reference value :  2.00127e-06
 Reference value :  2.00174e-06
 Reference value :  2.00218e-06
 Reference value :  2.00267e-06
 Reference value :  2.00392e-06
 Reference value :  2.00443e-06
 Reference value :  2.00501e-06
 Reference value :  2.00556e-06
 Reference value :  2.00619e-06
 Reference value :  2.00683e-06
 Reference value :  2.00764e-06
 Reference value :  2.00867e-06
 Reference value :  2.01006e-06
 Reference value :  2.01151e-06
 Reference value :  2.01276e-06
 Reference value :  2.01380e-06
 Reference value :  2.01480e-06
 Reference value :  2.01587e-06
 Reference value :  2.01694e-06
 Reference value :  2.01804e-06
 Reference value :  2.01925e-06
 Reference value :  2.02252e-06
 Reference value :  2.03157e-06
 Reference value :  2.06145e-06
 Reference value :  2.09664e-06
 Reference value :  2.13103e-06
 Reference value :  2.16422e-06
 Reference value :  2.18530e-06
 Reference value :  2.20516e-06
 Reference value :  2.22096e-06
 Reference value :  2.25010e-06
 Reference value :  2.25013e-06
 Reference value :  2.25017e-06
 Reference value :  2.25021e-06
 Reference value :  2.25025e-06
 Reference value :  2.25032e-06
 Reference value :  2.25057e-06
 Reference value :  2.25119e-06
 Reference value :  2.25162e-06
 Reference value :  2.25210e-06
 Reference value :  2.25267e-06
 Reference value :  2.25342e-06
 Reference value :  2.25392e-06
 Reference value :  2.25517e-06
 Reference value :  2.25676e-06
 Reference value :  2.25969e-06
 Reference value :  2.26675e-06
 Reference value :  2.29198e-06
 Reference value :  2.36061e-06
 Reference value :  2.42229e-06
 Reference value :  2.43856e-06
 Reference value :  2.46879e-06
 Reference value :  2.50000e-06
 Reference value :  2.50003e-06
 Reference value :  2.50010e-06
 Reference value :  2.50012e-06
 Reference value :  2.50022e-06
 Reference value :  2.50049e-06
 Reference value :  2.50127e-06
 Reference value :  2.50218e-06
 Reference value :  2.50322e-06
 Reference value :  2.50440e-06
 Reference value :  2.50613e-06
 Reference value :  2.50814e-06
 Reference value :  2.51012e-06
 Reference value :  2.51120e-06
 Reference value :  2.51492e-06
 Reference value :  2.52636e-06
 Reference value :  2.56672e-06
 Reference value :  2.71096e-06
 Reference value :  2.75011e-06
 Reference value :  2.75017e-06
 Reference value :  2.75021e-06
 Reference value :  2.75026e-06
 Reference value :  2.75044e-06
 Reference value :  2.75058e-06
 Reference value :  2.75122e-06
 Reference value :  2.75164e-06
 Reference value :  2.75212e-06
 Reference value :  2.75269e-06
 Reference value :  2.75347e-06
 Reference value :  2.75399e-06
 Reference value :  2.75515e-06
 Reference value :  2.75578e-06
 Reference value :  2.75662e-06
 Reference value :  2.75753e-06
 Reference value :  2.75923e-06
 Reference value :  2.76546e-06
 Reference value :  2.78926e-06
 Reference value :  2.88447e-06
 Reference value :  3.00001e-06
 Reference value :  3.00003e-06
 Reference value :  3.00007e-06
 Reference value :  3.00010e-06
 Reference value :  3.00012e-06
 Reference value :  3.00022e-06
 Reference value :  3.00033e-06
 Reference value :  3.00081e-06
 Reference value :  3.00127e-06
 Reference value :  3.00174e-06
 Reference value :  3.00218e-06
 Reference value :  3.00267e-06
 Reference value :  3.00332e-06
 Reference value :  3.00443e-06
 Reference value :  3.00501e-06
 Reference value :  3.00556e-06
 Reference value :  3.00618e-06
 Reference value :  3.00764e-06
 Reference value :  3.00867e-06
 Reference value :  3.01006e-06
 Reference value :  3.01151e-06
 Reference value :  3.01275e-06
 Reference value :  3.01379e-06
 Reference value :  3.01587e-06
 Reference value :  3.01693e-06
 Reference value :  3.01804e-06
 Reference value :  3.01925e-06
 Reference value :  3.02079e-06
 Reference value :  3.02574e-06
 Reference value :  3.03244e-06
 Reference value :  3.03532e-06
 Reference value :  3.03788e-06
 Reference value :  3.04346e-06
 Reference value :  3.05255e-06
 Reference value :  3.07094e-06
 Reference value :  3.11812e-06
 Reference value :  3.19222e-06
 Reference value :  3.22241e-06
 Reference value :  3.25011e-06
 Reference value :  3.25017e-06
 Reference value :  3.25021e-06
 Reference value :  3.25026e-06
 Reference value :  3.25044e-06
 Reference value :  3.25080e-06
 Reference value :  3.25164e-06
 Reference value :  3.25269e-06
 Reference value :  3.25347e-06
 Reference value :  3.25397e-06
 Reference value :  3.25532e-06
 Reference value :  3.25698e-06
 Reference value :  3.26020e-06
 Reference value :  3.26841e-06
 Reference value :  3.34117e-06
 Reference value :  3.50000e-06
 Reference value :  3.50003e-06
 Reference value :  3.50010e-06
 Reference value :  3.50012e-06
 Reference value :  3.50022e-06
 Reference value :  3.50049e-06
 Reference value :  3.50132e-06
 Reference value :  3.50220e-06
 Reference value :  3.50328e-06
 Reference value :  3.50394e-06
 Reference value :  3.50469e-06
 Reference value :  3.50547e-06
 Reference value :  3.50654e-06
 Reference value :  3.50734e-06
 Reference value :  3.50822e-06
 Reference value :  3.50908e-06
 Reference value :  3.51115e-06
 Reference value :  3.51485e-06
 Reference value :  3.52497e-06
 Reference value :  3.55603e-06
 Reference value :  3.67318e-06
 Reference value :  3.75011e-06
 Reference value :  3.75017e-06
 Reference value :  3.75021e-06
 Reference value :  3.75026e-06
 Reference value :  3.75044e-06
 Reference value :  3.75080e-06
 Reference value :  3.75164e-06
 Reference value :  3.75212e-06
 Reference value :  3.75346e-06
 Reference value :  3.75398e-06
 Reference value :  3.75513e-06
 Reference value :  3.75575e-06
 Reference value :  3.75658e-06
 Reference value :  3.75749e-06
 Reference value :  3.75839e-06
 Reference value :  3.75933e-06
 Reference value :  3.76074e-06
 Reference value :  3.76201e-06
 Reference value :  3.76787e-06
 Reference value :  3.78601e-06
 Reference value :  3.84506e-06
 Reference value :  4.00000e-06
 Reference value :  4.00003e-06
 Reference value :  4.00007e-06
 Reference value :  4.00011e-06
 Reference value :  4.00015e-06
 Reference value :  4.00022e-06
 Reference value :  4.00033e-06
 Reference value :  4.00049e-06
 Reference value :  4.00081e-06
 Reference value :  4.00127e-06
 Reference value :  4.00174e-06
 Reference value :  4.00218e-06
 Reference value :  4.00332e-06
 Reference value :  4.00442e-06
 Reference value :  4.00501e-06
 Reference value :  4.00556e-06
 Reference value :  4.00617e-06
 Reference value :  4.00763e-06
 Reference value :  4.00858e-06
 Reference value :  4.00976e-06
 Reference value :  4.01078e-06
 Reference value :  4.01182e-06
 Reference value :  4.01299e-06
 Reference value :  4.01382e-06
 Reference value :  4.01461e-06
 Reference value :  4.01671e-06
 Reference value :  4.01774e-06
 Reference value :  4.01897e-06
 Reference value :  4.02025e-06
 Reference value :  4.02453e-06
 Reference value :  4.03384e-06
 Reference value :  4.03809e-06
 Reference value :  4.04189e-06
 Reference value :  4.04390e-06
 Reference value :  4.04592e-06
 Reference value :  4.05101e-06
 Reference value :  4.05975e-06
 Reference value :  4.07757e-06
 Reference value :  4.09158e-06
 Reference value :  4.10793e-06
 Reference value :  4.12324e-06
 Reference value :  4.13432e-06
 Reference value :  4.14643e-06
 Reference value :  4.15781e-06
 Reference value :  4.16795e-06
 Reference value :  4.19159e-06
 Reference value :  4.23233e-06
 Reference value :  4.25011e-06
 Reference value :  4.25017e-06
 Reference value :  4.25021e-06
 Reference value :  4.25025e-06
 Reference value :  4.25031e-06
 Reference value :  4.25051e-06
 Reference value :  4.25092e-06
 Reference value :  4.25176e-06
 Reference value :  4.25224e-06
 Reference value :  4.25375e-06
 Reference value :  4.25431e-06
 Reference value :  4.25495e-06
 Reference value :  4.25567e-06
 Reference value :  4.25743e-06
 Reference value :  4.26120e-06
 Reference value :  4.27234e-06
 Reference value :  4.30553e-06
 Reference value :  4.40771e-06
 Reference value :  4.50001e-06
 Reference value :  4.50007e-06
 Reference value :  4.50010e-06
 Reference value :  4.50012e-06
 Reference value :  4.50022e-06
 Reference value :  4.50059e-06
 Reference value :  4.50095e-06
 Reference value :  4.50158e-06
 Reference value :  4.50263e-06
 Reference value :  4.50375e-06
 Reference value :  4.50440e-06
 Reference value :  4.50604e-06
 Reference value :  4.50797e-06
 Reference value :  4.50892e-06
 Reference value :  4.50991e-06
 Reference value :  4.51254e-06
 Reference value :  4.51754e-06
 Reference value :  4.53253e-06
 Reference value :  4.58871e-06
 Reference value :  4.75010e-06
 Reference value :  4.75013e-06
 Reference value :  4.75020e-06
 Reference value :  4.75022e-06
 Reference value :  4.75025e-06
 Reference value :  4.75038e-06
 Reference value :  4.75068e-06
 Reference value :  4.75132e-06
 Reference value :  4.75176e-06
 Reference value :  4.75289e-06
 Reference value :  4.75377e-06
 Reference value :  4.75433e-06
 Reference value :  4.75565e-06
 Reference value :  4.75636e-06
 Reference value :  4.75718e-06
 Reference value :  4.75814e-06
 Reference value :  4.75927e-06
 Reference value :  4.76189e-06
 Reference value :  4.76681e-06
 Reference value :  4.78122e-06
 Reference value :  4.79755e-06
 Reference value :  4.86948e-06
 Reference value :  5.00000e-06
 Reference value :  5.00003e-06
 Reference value :  5.00010e-06
 Reference value :  5.00012e-06
 Reference value :  5.00022e-06
 Reference value :  5.00034e-06
 Reference value :  5.00095e-06
 Reference value :  5.00158e-06
 Reference value :  5.00216e-06
 Reference value :  5.00265e-06
 Reference value :  5.00378e-06
 Reference value :  5.00443e-06
 Reference value :  5.00494e-06
 Reference value :  5.00552e-06
 Reference value :  5.00605e-06
 Reference value :  5.00753e-06
 Reference value :  5.00962e-06
 Reference value :  5.01053e-06
 Reference value :  5.01152e-06
 Reference value :  5.01267e-06
 Reference value :  5.01373e-06
 Reference value :  5.01470e-06
 Reference value :  5.01579e-06
 Reference value :  5.01689e-06
 Reference value :  5.01798e-06
 Reference value :  5.01934e-06
 Reference value :  5.02264e-06
 Reference value :  5.02750e-06
 Reference value :  5.03007e-06
 Reference value :  5.03202e-06
 Reference value :  5.03545e-06
 Reference value :  5.04011e-06
 Reference value :  5.04794e-06
 Reference value :  5.06245e-06
 Reference value :  5.08704e-06
 Reference value :  5.14423e-06
 Reference value :  5.18144e-06
 Reference value :  5.21071e-06
 Reference value :  5.24138e-06
 Reference value :  5.25010e-06
 Reference value :  5.25013e-06
 Reference value :  5.25020e-06
 Reference value :  5.25022e-06
 Reference value :  5.25031e-06
 Reference value :  5.25051e-06
 Reference value :  5.25091e-06
 Reference value :  5.25129e-06
 Reference value :  5.25173e-06
 Reference value :  5.25284e-06
 Reference value :  5.25369e-06
 Reference value :  5.25424e-06
 Reference value :  5.25487e-06
 Reference value :  5.25560e-06
 Reference value :  5.25647e-06
 Reference value :  5.25734e-06
 Reference value :  5.26107e-06
 Reference value :  5.26466e-06
 Reference value :  5.28312e-06
 Reference value :  5.32124e-06
 Reference value :  5.43999e-06
 Reference value :  5.50001e-06
 Reference value :  5.50007e-06
 Reference value :  5.50011e-06
 Reference value :  5.50015e-06
 Reference value :  5.50022e-06
 Reference value :  5.50059e-06
 Reference value :  5.50095e-06
 Reference value :  5.50158e-06
 Reference value :  5.50263e-06
 Reference value :  5.50376e-06
 Reference value :  5.50441e-06
 Reference value :  5.50602e-06
 Reference value :  5.50707e-06
 Reference value :  5.50794e-06
 Reference value :  5.50887e-06
 Reference value :  5.50982e-06
 Reference value :  5.51085e-06
 Reference value :  5.51233e-06
 Reference value :  5.51692e-06
 Reference value :  5.52991e-06
 Reference value :  5.54548e-06
 Reference value :  5.57661e-06
 Reference value :  5.63887e-06
 Reference value :  5.75011e-06
 Reference value :  5.75013e-06
 Reference value :  5.75017e-06
 Reference value :  5.75020e-06
 Reference value :  5.75021e-06
 Reference value :  5.75022e-06
 Reference value :  5.75025e-06
 Reference value :  5.75031e-06
 Reference value :  5.75038e-06
 Reference value :  5.75051e-06
 Reference value :  5.75068e-06
 Reference value :  5.75092e-06
 Reference value :  5.75132e-06
 Reference value :  5.75176e-06
 Reference value :  5.75224e-06
 Reference value :  5.75288e-06
 Reference value :  5.75376e-06
 Reference value :  5.75433e-06
 Reference value :  5.75497e-06
 Reference value :  5.75565e-06
 Reference value :  5.75635e-06
 Reference value :  5.75717e-06
 Reference value :  5.75813e-06
 Reference value :  5.75925e-06
 Reference value :  5.76030e-06
 Reference value :  5.76188e-06
 Reference value :  5.76360e-06
 Reference value :  5.77250e-06
 Reference value :  5.79726e-06
 Reference value :  5.86822e-06
 Reference value :  5.94820e-06
 Reference value :  6.00001e-06
 Reference value :  6.00007e-06
 Reference value :  6.00011e-06
 Reference value :  6.00015e-06
 Reference value :  6.00022e-06
 Reference value :  6.00059e-06
 Reference value :  6.00095e-06
 Reference value :  6.00158e-06
 Reference value :  6.00216e-06
 Reference value :  6.00265e-06
 Reference value :  6.00378e-06
 Reference value :  6.00443e-06
 Reference value :  6.00494e-06
 Reference value :  6.00552e-06
 Reference value :  6.00605e-06
 Reference value :  6.00665e-06
 Reference value :  6.00836e-06
 Reference value :  6.00964e-06
 Reference value :  6.01055e-06
 Reference value :  6.01155e-06
 Reference value :  6.01258e-06
 Reference value :  6.01368e-06
 Reference value :  6.01577e-06
 Reference value :  6.01799e-06
 Reference value :  6.01934e-06
 Reference value :  6.02069e-06
 Reference value :  6.02166e-06
 Reference value :  6.02277e-06
 Reference value :  6.02404e-06
 Reference value :  6.02540e-06
 Reference value :  6.02963e-06
 Reference value :  6.03840e-06
 Reference value :  6.04336e-06
 Reference value :  6.06114e-06
 Reference value :  6.11954e-06
 Reference value :  6.25010e-06
 Reference value :  6.25013e-06
 Reference value :  6.25020e-06
 Reference value :  6.25022e-06
 Reference value :  6.25025e-06
 Reference value :  6.25038e-06
 Reference value :  6.25051e-06
 Reference value :  6.25091e-06
 Reference value :  6.25129e-06
 Reference value :  6.25173e-06
 Reference value :  6.25220e-06
 Reference value :  6.25369e-06
 Reference value :  6.25427e-06
 Reference value :  6.25575e-06
 Reference value :  6.25653e-06
 Reference value :  6.25902e-06
 Reference value :  6.26498e-06
 Reference value :  6.28379e-06
 Reference value :  6.34324e-06
 Reference value :  6.40962e-06
 Reference value :  6.50001e-06
 Reference value :  6.50003e-06
 Reference value :  6.50010e-06
 Reference value :  6.50012e-06
 Reference value :  6.50022e-06
 Reference value :  6.50034e-06
 Reference value :  6.50095e-06
 Reference value :  6.50158e-06
 Reference value :  6.50216e-06
 Reference value :  6.50266e-06
 Reference value :  6.50321e-06
 Reference value :  6.50377e-06
 Reference value :  6.50439e-06
 Reference value :  6.50524e-06
 Reference value :  6.50600e-06
 Reference value :  6.50720e-06
 Reference value :  6.50831e-06
 Reference value :  6.50932e-06
 Reference value :  6.51171e-06
 Reference value :  6.51565e-06
 Reference value :  6.52623e-06
 Reference value :  6.55897e-06
 Reference value :  6.67435e-06
 Reference value :  6.75011e-06
 Reference value :  6.75013e-06
 Reference value :  6.75020e-06
 Reference value :  6.75022e-06
 Reference value :  6.75031e-06
 Reference value :  6.75051e-06
 Reference value :  6.75092e-06
 Reference value :  6.75132e-06
 Reference value :  6.75224e-06
 Reference value :  6.75289e-06
 Reference value :  6.75376e-06
 Reference value :  6.75433e-06
 Reference value :  6.75497e-06
 Reference value :  6.75564e-06
 Reference value :  6.75634e-06
 Reference value :  6.75729e-06
 Reference value :  6.76034e-06
 Reference value :  6.76875e-06
 Reference value :  6.79539e-06
 Reference value :  6.88213e-06
 Reference value :  7.00000e-06
 Reference value :  7.00003e-06
 Reference value :  7.00010e-06
 Reference value :  7.00012e-06
 Reference value :  7.00022e-06
 Reference value :  7.00059e-06
 Reference value :  7.00158e-06
 Reference value :  7.00216e-06
 Reference value :  7.00265e-06
 Reference value :  7.00321e-06
 Reference value :  7.00379e-06
 Reference value :  7.00445e-06
 Reference value :  7.00502e-06
 Reference value :  7.00625e-06
 Reference value :  7.00691e-06
 Reference value :  7.00882e-06
 Reference value :  7.01025e-06
 Reference value :  7.01168e-06
 Reference value :  7.01297e-06
 Reference value :  7.01400e-06
 Reference value :  7.01496e-06
 Reference value :  7.01606e-06
 Reference value :  7.01710e-06
 Reference value :  7.01820e-06
 Reference value :  7.01938e-06
 Reference value :  7.02106e-06
 Reference value :  7.02497e-06
 Reference value :  7.03030e-06
 Reference value :  7.03347e-06
 Reference value :  7.03668e-06
 Reference value :  7.03965e-06
 Reference value :  7.04307e-06
 Reference value :  7.05346e-06
 Reference value :  7.07426e-06
 Reference value :  7.10051e-06
 Reference value :  7.17531e-06
 Reference value :  7.25011e-06
 Reference value :  7.25017e-06
 Reference value :  7.25021e-06
 Reference value :  7.25025e-06
 Reference value :  7.25038e-06
 Reference value :  7.25067e-06
 Reference value :  7.25129e-06
 Reference value :  7.25175e-06
 Reference value :  7.25286e-06
 Reference value :  7.25372e-06
 Reference value :  7.25427e-06
 Reference value :  7.25565e-06
 Reference value :  7.25739e-06
 Reference value :  7.26114e-06
 Reference value :  7.27206e-06
 Reference value :  7.30498e-06
 Reference value :  7.40778e-06
 Reference value :  7.50001e-06
 Reference value :  7.50007e-06
 Reference value :  7.50011e-06
 Reference value :  7.50015e-06
 Reference value :  7.50022e-06
 Reference value :  7.50059e-06
 Reference value :  7.50158e-06
 Reference value :  7.50263e-06
 Reference value :  7.50317e-06
 Reference value :  7.50376e-06
 Reference value :  7.50440e-06
 Reference value :  7.50512e-06
 Reference value :  7.50603e-06
 Reference value :  7.50796e-06
 Reference value :  7.50989e-06
 Reference value :  7.51254e-06
 Reference value :  7.51737e-06
 Reference value :  7.53154e-06
 Reference value :  7.58416e-06
 Reference value :  7.75010e-06
 Reference value :  7.75013e-06
 Reference value :  7.75020e-06
 Reference value :  7.75022e-06
 Reference value :  7.75031e-06
 Reference value :  7.75051e-06
 Reference value :  7.75092e-06
 Reference value :  7.75176e-06
 Reference value :  7.75288e-06
 Reference value :  7.75377e-06
 Reference value :  7.75433e-06
 Reference value :  7.75566e-06
 Reference value :  7.75636e-06
 Reference value :  7.75718e-06
 Reference value :  7.75923e-06
 Reference value :  7.76188e-06
 Reference value :  7.77247e-06
 Reference value :  7.79697e-06
 Reference value :  7.86648e-06
 Reference value :  8.00000e-06
 Reference value :  8.00003e-06
 Reference value :  8.00010e-06
 Reference value :  8.00012e-06
 Reference value :  8.00022e-06
 Reference value :  8.00059e-06
 Reference value :  8.00158e-06
 Reference value :  8.00266e-06
 Reference value :  8.00378e-06
 Reference value :  8.00445e-06
 Reference value :  8.00496e-06
 Reference value :  8.00608e-06
 Reference value :  8.00760e-06
 Reference value :  8.00932e-06
 Reference value :  8.01014e-06
 Reference value :  8.01212e-06
 Reference value :  8.01418e-06
 Reference value :  8.01651e-06
 Reference value :  8.01905e-06
 Reference value :  8.02609e-06
 Reference value :  8.04602e-06
 Reference value :  8.11464e-06
 Reference value :  8.25010e-06
 Reference value :  8.25013e-06
 Reference value :  8.25020e-06
 Reference value :  8.25022e-06
 Reference value :  8.25032e-06
 Reference value :  8.25057e-06
 Reference value :  8.25113e-06
 Reference value :  8.25151e-06
 Reference value :  8.25200e-06
 Reference value :  8.25321e-06
 Reference value :  8.25421e-06
 Reference value :  8.25619e-06
 Reference value :  8.25859e-06
 Reference value :  8.26307e-06
 Reference value :  8.27866e-06
 Reference value :  8.34103e-06
 Reference value :  8.50000e-06
 Reference value :  8.50003e-06
 Reference value :  8.50010e-06
 Reference value :  8.50015e-06
 Reference value :  8.50034e-06
 Reference value :  8.50095e-06
 Reference value :  8.50217e-06
 Reference value :  8.50267e-06
 Reference value :  8.50392e-06
 Reference value :  8.50465e-06
 Reference value :  8.50536e-06
 Reference value :  8.50608e-06
 Reference value :  8.50766e-06
 Reference value :  8.51081e-06
 Reference value :  8.52007e-06
 Reference value :  8.52080e-06
 Reference value :  8.52466e-06
 Reference value :  8.52669e-06
 Reference value :  8.53043e-06
 Reference value :  8.53374e-06
 Reference value :  8.53679e-06
 Reference value :  8.53987e-06
 Reference value :  8.54591e-06
 Reference value :  8.55361e-06
 Reference value :  8.57094e-06
 Reference value :  8.58713e-06
 Reference value :  8.60835e-06
 Reference value :  8.70250e-06
 Reference value :  8.75011e-06
 Reference value :  8.75017e-06
 Reference value :  8.75021e-06
 Reference value :  8.75025e-06
 Reference value :  8.75044e-06
 Reference value :  8.75080e-06
 Reference value :  8.75163e-06
 Reference value :  8.75268e-06
 Reference value :  8.75342e-06
 Reference value :  8.75395e-06
 Reference value :  8.75514e-06
 Reference value :  8.75671e-06
 Reference value :  8.75947e-06
 Reference value :  8.76203e-06
 Reference value :  8.77439e-06
 Reference value :  8.82383e-06
 Reference value :  8.88975e-06
 Reference value :  9.00000e-06
No. of Data Rows : 1352
ngspice-44 done
