
Note: Compatibility modes selected: hs a


Circuit: ** sch_path: /home/audrey/cace/sar-adc-using-sky130-pdk/runs/run_2025-09-10_15-39-05/parameters/power/run_5/power_consumption.sch

option SCALE: Scale is set to 1e-06 for instance and model parameters
option SCALE: Scale is set to 1e-06 for instance and model parameters
option SCALE: Scale is set to 1e-06 for instance and model parameters
option SCALE: Scale is set to 1e-06 for instance and model parameters
Doing analysis at TEMP = 27.000000 and TNOM = 27.000000

Using KLU as Direct Linear Solver
 Reference value :  0.00000e+00
 Reference value :  1.00000e-12
 Reference value :  2.00000e-12
 Reference value :  4.00000e-12
 Reference value :  8.00000e-12
 Reference value :  1.60000e-11
 Reference value :  3.20000e-11
 Reference value :  6.40000e-11
 Reference value :  1.00000e-10
 Reference value :  1.01503e-10
 Reference value :  1.04508e-10
 Reference value :  1.10520e-10
 Reference value :  1.22542e-10
 Reference value :  1.46587e-10
 Reference value :  1.94676e-10
 Reference value :  2.90855e-10
 Reference value :  4.60259e-10
 Reference value :  7.25635e-10
 Reference value :  1.08501e-09
 Reference value :  1.56332e-09
 Reference value :  2.16618e-09
 Reference value :  2.84265e-09
 Reference value :  3.60703e-09
 Reference value :  4.49803e-09
 Reference value :  5.32023e-09
 Reference value :  6.12274e-09
 Reference value :  6.91796e-09
 Reference value :  7.77859e-09
 Reference value :  8.81838e-09
 Reference value :  9.85200e-09
 Reference value :  1.08752e-08
 Reference value :  1.20450e-08
 Reference value :  1.32441e-08
 Reference value :  1.45182e-08
 Reference value :  1.63347e-08
 Reference value :  1.76346e-08
 Reference value :  1.90338e-08
 Reference value :  2.03185e-08
 Reference value :  2.19513e-08
 Reference value :  2.36693e-08
 Reference value :  2.65878e-08
 Reference value :  2.95372e-08
 Reference value :  3.24286e-08
 Reference value :  3.60938e-08
 Reference value :  3.97511e-08
 Reference value :  4.32771e-08
 Reference value :  4.55355e-08
 Reference value :  4.76034e-08
 Reference value :  5.01894e-08
 Reference value :  5.25642e-08
 Reference value :  5.59514e-08
 Reference value :  5.94671e-08
 Reference value :  6.35472e-08
 Reference value :  6.79255e-08
 Reference value :  7.31531e-08
 Reference value :  8.02887e-08
 Reference value :  9.16546e-08
 Reference value :  1.08495e-07
 Reference value :  1.38422e-07
 Reference value :  1.71145e-07
 Reference value :  2.22733e-07
 Reference value :  2.50100e-07
 Reference value :  2.50110e-07
 Reference value :  2.50130e-07
 Reference value :  2.50170e-07
 Reference value :  2.50200e-07
 Reference value :  2.50201e-07
 Reference value :  2.50202e-07
 Reference value :  2.50204e-07
 Reference value :  2.50208e-07
 Reference value :  2.50216e-07
 Reference value :  2.50233e-07
 Reference value :  2.50266e-07
 Reference value :  2.50332e-07
 Reference value :  2.50437e-07
 Reference value :  2.50614e-07
 Reference value :  2.50821e-07
 Reference value :  2.51148e-07
 Reference value :  2.51608e-07
 Reference value :  2.52170e-07
 Reference value :  2.52778e-07
 Reference value :  2.53439e-07
 Reference value :  2.54302e-07
 Reference value :  2.55237e-07
 Reference value :  2.56108e-07
 Reference value :  2.56986e-07
 Reference value :  2.57971e-07
 Reference value :  2.58869e-07
 Reference value :  2.60665e-07
 Reference value :  2.62632e-07
 Reference value :  2.65336e-07
 Reference value :  2.69333e-07
 Reference value :  2.74599e-07
 Reference value :  2.85131e-07
 Reference value :  3.06194e-07
 Reference value :  3.45818e-07
 Reference value :  4.25066e-07
 Reference value :  5.00000e-07
 Reference value :  5.00010e-07
 Reference value :  5.00030e-07
 Reference value :  5.00070e-07
 Reference value :  5.00100e-07
 Reference value :  5.00104e-07
 Reference value :  5.00113e-07
 Reference value :  5.00130e-07
 Reference value :  5.00165e-07
 Reference value :  5.00234e-07
 Reference value :  5.00372e-07
 Reference value :  5.00573e-07
 Reference value :  5.00954e-07
 Reference value :  5.01538e-07
 Reference value :  5.02097e-07
 Reference value :  5.02767e-07
 Reference value :  5.03534e-07
 Reference value :  5.04331e-07
 Reference value :  5.05155e-07
 Reference value :  5.05969e-07
 Reference value :  5.07080e-07
 Reference value :  5.08144e-07
 Reference value :  5.09971e-07
 Reference value :  5.12234e-07
 Reference value :  5.14418e-07
 Reference value :  5.16730e-07
 Reference value :  5.18921e-07
 Reference value :  5.21493e-07
 Reference value :  5.24240e-07
 Reference value :  5.29261e-07
 Reference value :  5.35651e-07
 Reference value :  5.46671e-07
 Reference value :  5.65476e-07
 Reference value :  5.95830e-07
 Reference value :  6.55541e-07
 Reference value :  7.50100e-07
 Reference value :  7.50110e-07
 Reference value :  7.50130e-07
 Reference value :  7.50170e-07
 Reference value :  7.50200e-07
 Reference value :  7.50201e-07
 Reference value :  7.50202e-07
 Reference value :  7.50205e-07
 Reference value :  7.50211e-07
 Reference value :  7.50223e-07
 Reference value :  7.50247e-07
 Reference value :  7.50295e-07
 Reference value :  7.50390e-07
 Reference value :  7.50581e-07
 Reference value :  7.50959e-07
 Reference value :  7.51572e-07
 Reference value :  7.52191e-07
 Reference value :  7.52840e-07
 Reference value :  7.53541e-07
 Reference value :  7.54448e-07
 Reference value :  7.55180e-07
 Reference value :  7.56013e-07
 Reference value :  7.56743e-07
 Reference value :  7.57550e-07
 Reference value :  7.58563e-07
 Reference value :  7.59652e-07
 Reference value :  7.61829e-07
 Reference value :  7.64153e-07
 Reference value :  7.68214e-07
 Reference value :  7.72586e-07
 Reference value :  7.81330e-07
 Reference value :  7.98817e-07
 Reference value :  8.31714e-07
 Reference value :  8.97506e-07
 Reference value :  1.00000e-06
 Reference value :  1.00001e-06
 Reference value :  1.00003e-06
 Reference value :  1.00007e-06
 Reference value :  1.00010e-06
 Reference value :  1.00010e-06
 Reference value :  1.00011e-06
 Reference value :  1.00013e-06
 Reference value :  1.00016e-06
 Reference value :  1.00023e-06
 Reference value :  1.00037e-06
 Reference value :  1.00057e-06
 Reference value :  1.00095e-06
 Reference value :  1.00154e-06
 Reference value :  1.00209e-06
 Reference value :  1.00276e-06
 Reference value :  1.00353e-06
 Reference value :  1.00440e-06
 Reference value :  1.00519e-06
 Reference value :  1.00606e-06
 Reference value :  1.00684e-06
 Reference value :  1.00759e-06
 Reference value :  1.00846e-06
 Reference value :  1.00938e-06
 Reference value :  1.01056e-06
 Reference value :  1.01241e-06
 Reference value :  1.01476e-06
 Reference value :  1.01829e-06
 Reference value :  1.02070e-06
 Reference value :  1.02282e-06
 Reference value :  1.02485e-06
 Reference value :  1.02663e-06
 Reference value :  1.02848e-06
 Reference value :  1.03073e-06
 Reference value :  1.03324e-06
 Reference value :  1.03622e-06
 Reference value :  1.04043e-06
 Reference value :  1.04383e-06
 Reference value :  1.04741e-06
 Reference value :  1.05056e-06
 Reference value :  1.05437e-06
 Reference value :  1.05978e-06
 Reference value :  1.06344e-06
 Reference value :  1.06747e-06
 Reference value :  1.07301e-06
 Reference value :  1.07867e-06
 Reference value :  1.08644e-06
 Reference value :  1.09422e-06
 Reference value :  1.10242e-06
 Reference value :  1.11107e-06
 Reference value :  1.12837e-06
 Reference value :  1.15073e-06
 Reference value :  1.18879e-06
 Reference value :  1.25010e-06
 Reference value :  1.25011e-06
 Reference value :  1.25013e-06
 Reference value :  1.25017e-06
 Reference value :  1.25020e-06
 Reference value :  1.25020e-06
 Reference value :  1.25020e-06
 Reference value :  1.25021e-06
 Reference value :  1.25021e-06
 Reference value :  1.25022e-06
 Reference value :  1.25025e-06
 Reference value :  1.25029e-06
 Reference value :  1.25039e-06
 Reference value :  1.25058e-06
 Reference value :  1.25091e-06
 Reference value :  1.25156e-06
 Reference value :  1.25216e-06
 Reference value :  1.25279e-06
 Reference value :  1.25350e-06
 Reference value :  1.25440e-06
 Reference value :  1.25512e-06
 Reference value :  1.25593e-06
 Reference value :  1.25678e-06
 Reference value :  1.25767e-06
 Reference value :  1.25884e-06
 Reference value :  1.26073e-06
 Reference value :  1.26321e-06
 Reference value :  1.26622e-06
 Reference value :  1.27055e-06
 Reference value :  1.27708e-06
 Reference value :  1.29012e-06
 Reference value :  1.31620e-06
 Reference value :  1.36837e-06
 Reference value :  1.47270e-06
 Reference value :  1.50000e-06
 Reference value :  1.50001e-06
 Reference value :  1.50003e-06
 Reference value :  1.50007e-06
 Reference value :  1.50010e-06
 Reference value :  1.50010e-06
 Reference value :  1.50011e-06
 Reference value :  1.50013e-06
 Reference value :  1.50016e-06
 Reference value :  1.50023e-06
 Reference value :  1.50037e-06
 Reference value :  1.50057e-06
 Reference value :  1.50093e-06
 Reference value :  1.50144e-06
 Reference value :  1.50196e-06
 Reference value :  1.50256e-06
 Reference value :  1.50328e-06
 Reference value :  1.50403e-06
 Reference value :  1.50495e-06
 Reference value :  1.50585e-06
 Reference value :  1.50686e-06
 Reference value :  1.50811e-06
 Reference value :  1.50936e-06
 Reference value :  1.51067e-06
 Reference value :  1.51200e-06
 Reference value :  1.51366e-06
 Reference value :  1.51503e-06
 Reference value :  1.51662e-06
 Reference value :  1.51817e-06
 Reference value :  1.51996e-06
 Reference value :  1.52354e-06
 Reference value :  1.52950e-06
 Reference value :  1.53972e-06
 Reference value :  1.56017e-06
 Reference value :  1.60107e-06
 Reference value :  1.68287e-06
 Reference value :  1.75010e-06
 Reference value :  1.75011e-06
 Reference value :  1.75013e-06
 Reference value :  1.75017e-06
 Reference value :  1.75020e-06
 Reference value :  1.75020e-06
 Reference value :  1.75020e-06
 Reference value :  1.75021e-06
 Reference value :  1.75021e-06
 Reference value :  1.75022e-06
 Reference value :  1.75025e-06
 Reference value :  1.75029e-06
 Reference value :  1.75039e-06
 Reference value :  1.75057e-06
 Reference value :  1.75090e-06
 Reference value :  1.75156e-06
 Reference value :  1.75215e-06
 Reference value :  1.75278e-06
 Reference value :  1.75348e-06
 Reference value :  1.75439e-06
 Reference value :  1.75514e-06
 Reference value :  1.75599e-06
 Reference value :  1.75671e-06
 Reference value :  1.75752e-06
 Reference value :  1.75855e-06
 Reference value :  1.75965e-06
 Reference value :  1.76078e-06
 Reference value :  1.76247e-06
 Reference value :  1.76454e-06
 Reference value :  1.76717e-06
 Reference value :  1.77073e-06
 Reference value :  1.77526e-06
 Reference value :  1.78433e-06
 Reference value :  1.79842e-06
 Reference value :  1.82661e-06
 Reference value :  1.88298e-06
 Reference value :  1.99573e-06
 Reference value :  2.00000e-06
 Reference value :  2.00001e-06
 Reference value :  2.00003e-06
 Reference value :  2.00007e-06
 Reference value :  2.00010e-06
 Reference value :  2.00010e-06
 Reference value :  2.00011e-06
 Reference value :  2.00013e-06
 Reference value :  2.00017e-06
 Reference value :  2.00023e-06
 Reference value :  2.00037e-06
 Reference value :  2.00057e-06
 Reference value :  2.00093e-06
 Reference value :  2.00145e-06
 Reference value :  2.00198e-06
 Reference value :  2.00262e-06
 Reference value :  2.00338e-06
 Reference value :  2.00415e-06
 Reference value :  2.00498e-06
 Reference value :  2.00570e-06
 Reference value :  2.00649e-06
 Reference value :  2.00720e-06
 Reference value :  2.00804e-06
 Reference value :  2.00883e-06
 Reference value :  2.00991e-06
 Reference value :  2.01108e-06
 Reference value :  2.01313e-06
 Reference value :  2.01599e-06
 Reference value :  2.01790e-06
 Reference value :  2.02002e-06
 Reference value :  2.02197e-06
 Reference value :  2.02343e-06
 Reference value :  2.02481e-06
 Reference value :  2.02604e-06
 Reference value :  2.02741e-06
 Reference value :  2.02903e-06
 Reference value :  2.03100e-06
 Reference value :  2.03376e-06
 Reference value :  2.03714e-06
 Reference value :  2.04390e-06
 Reference value :  2.05420e-06
 Reference value :  2.07177e-06
 Reference value :  2.10252e-06
 Reference value :  2.15284e-06
 Reference value :  2.21642e-06
 Reference value :  2.25010e-06
 Reference value :  2.25011e-06
 Reference value :  2.25013e-06
 Reference value :  2.25017e-06
 Reference value :  2.25020e-06
 Reference value :  2.25020e-06
 Reference value :  2.25020e-06
 Reference value :  2.25021e-06
 Reference value :  2.25021e-06
 Reference value :  2.25022e-06
 Reference value :  2.25025e-06
 Reference value :  2.25029e-06
 Reference value :  2.25039e-06
 Reference value :  2.25058e-06
 Reference value :  2.25091e-06
 Reference value :  2.25157e-06
 Reference value :  2.25217e-06
 Reference value :  2.25281e-06
 Reference value :  2.25351e-06
 Reference value :  2.25441e-06
 Reference value :  2.25513e-06
 Reference value :  2.25595e-06
 Reference value :  2.25680e-06
 Reference value :  2.25768e-06
 Reference value :  2.25885e-06
 Reference value :  2.26068e-06
 Reference value :  2.26317e-06
 Reference value :  2.26616e-06
 Reference value :  2.27050e-06
 Reference value :  2.27688e-06
 Reference value :  2.28965e-06
 Reference value :  2.31519e-06
 Reference value :  2.36627e-06
 Reference value :  2.41928e-06
 Reference value :  2.48094e-06
 Reference value :  2.50000e-06
 Reference value :  2.50001e-06
 Reference value :  2.50003e-06
 Reference value :  2.50007e-06
 Reference value :  2.50010e-06
 Reference value :  2.50010e-06
 Reference value :  2.50011e-06
 Reference value :  2.50013e-06
 Reference value :  2.50017e-06
 Reference value :  2.50023e-06
 Reference value :  2.50037e-06
 Reference value :  2.50057e-06
 Reference value :  2.50093e-06
 Reference value :  2.50145e-06
 Reference value :  2.50198e-06
 Reference value :  2.50259e-06
 Reference value :  2.50330e-06
 Reference value :  2.50406e-06
 Reference value :  2.50498e-06
 Reference value :  2.50591e-06
 Reference value :  2.50689e-06
 Reference value :  2.50813e-06
 Reference value :  2.50934e-06
 Reference value :  2.51064e-06
 Reference value :  2.51197e-06
 Reference value :  2.51359e-06
 Reference value :  2.51494e-06
 Reference value :  2.51651e-06
 Reference value :  2.51804e-06
 Reference value :  2.51981e-06
 Reference value :  2.52335e-06
 Reference value :  2.52928e-06
 Reference value :  2.53972e-06
 Reference value :  2.56059e-06
 Reference value :  2.60234e-06
 Reference value :  2.68583e-06
 Reference value :  2.75010e-06
 Reference value :  2.75011e-06
 Reference value :  2.75013e-06
 Reference value :  2.75017e-06
 Reference value :  2.75020e-06
 Reference value :  2.75020e-06
 Reference value :  2.75020e-06
 Reference value :  2.75021e-06
 Reference value :  2.75021e-06
 Reference value :  2.75022e-06
 Reference value :  2.75025e-06
 Reference value :  2.75029e-06
 Reference value :  2.75039e-06
 Reference value :  2.75057e-06
 Reference value :  2.75090e-06
 Reference value :  2.75156e-06
 Reference value :  2.75215e-06
 Reference value :  2.75278e-06
 Reference value :  2.75349e-06
 Reference value :  2.75440e-06
 Reference value :  2.75514e-06
 Reference value :  2.75598e-06
 Reference value :  2.75670e-06
 Reference value :  2.75751e-06
 Reference value :  2.75854e-06
 Reference value :  2.75965e-06
 Reference value :  2.76077e-06
 Reference value :  2.76249e-06
 Reference value :  2.76449e-06
 Reference value :  2.76718e-06
 Reference value :  2.77068e-06
 Reference value :  2.77526e-06
 Reference value :  2.78442e-06
 Reference value :  2.79765e-06
 Reference value :  2.82410e-06
 Reference value :  2.87700e-06
 Reference value :  2.98280e-06
 Reference value :  3.00000e-06
 Reference value :  3.00001e-06
 Reference value :  3.00003e-06
 Reference value :  3.00007e-06
 Reference value :  3.00010e-06
 Reference value :  3.00010e-06
 Reference value :  3.00011e-06
 Reference value :  3.00013e-06
 Reference value :  3.00017e-06
 Reference value :  3.00023e-06
 Reference value :  3.00037e-06
 Reference value :  3.00057e-06
 Reference value :  3.00093e-06
 Reference value :  3.00145e-06
 Reference value :  3.00198e-06
 Reference value :  3.00262e-06
 Reference value :  3.00338e-06
 Reference value :  3.00415e-06
 Reference value :  3.00498e-06
 Reference value :  3.00572e-06
 Reference value :  3.00650e-06
 Reference value :  3.00723e-06
 Reference value :  3.00806e-06
 Reference value :  3.00887e-06
 Reference value :  3.00995e-06
 Reference value :  3.01115e-06
 Reference value :  3.01296e-06
 Reference value :  3.01491e-06
 Reference value :  3.01658e-06
 Reference value :  3.01831e-06
 Reference value :  3.02019e-06
 Reference value :  3.02171e-06
 Reference value :  3.02322e-06
 Reference value :  3.02504e-06
 Reference value :  3.02675e-06
 Reference value :  3.02829e-06
 Reference value :  3.03037e-06
 Reference value :  3.03333e-06
 Reference value :  3.03601e-06
 Reference value :  3.04106e-06
 Reference value :  3.04750e-06
 Reference value :  3.05755e-06
 Reference value :  3.07392e-06
 Reference value :  3.10105e-06
 Reference value :  3.12819e-06
 Reference value :  3.15690e-06
 Reference value :  3.19061e-06
 Reference value :  3.22320e-06
 Reference value :  3.25010e-06
 Reference value :  3.25011e-06
 Reference value :  3.25013e-06
 Reference value :  3.25017e-06
 Reference value :  3.25020e-06
 Reference value :  3.25020e-06
 Reference value :  3.25020e-06
 Reference value :  3.25021e-06
 Reference value :  3.25021e-06
 Reference value :  3.25022e-06
 Reference value :  3.25025e-06
 Reference value :  3.25029e-06
 Reference value :  3.25039e-06
 Reference value :  3.25057e-06
 Reference value :  3.25090e-06
 Reference value :  3.25155e-06
 Reference value :  3.25215e-06
 Reference value :  3.25278e-06
 Reference value :  3.25349e-06
 Reference value :  3.25440e-06
 Reference value :  3.25513e-06
 Reference value :  3.25596e-06
 Reference value :  3.25681e-06
 Reference value :  3.25770e-06
 Reference value :  3.25888e-06
 Reference value :  3.26076e-06
 Reference value :  3.26321e-06
 Reference value :  3.26626e-06
 Reference value :  3.27057e-06
 Reference value :  3.27720e-06
 Reference value :  3.29046e-06
 Reference value :  3.31697e-06
 Reference value :  3.37000e-06
 Reference value :  3.47606e-06
 Reference value :  3.50000e-06
 Reference value :  3.50001e-06
 Reference value :  3.50003e-06
 Reference value :  3.50007e-06
 Reference value :  3.50010e-06
 Reference value :  3.50010e-06
 Reference value :  3.50011e-06
 Reference value :  3.50013e-06
 Reference value :  3.50016e-06
 Reference value :  3.50023e-06
 Reference value :  3.50037e-06
 Reference value :  3.50057e-06
 Reference value :  3.50093e-06
 Reference value :  3.50144e-06
 Reference value :  3.50196e-06
 Reference value :  3.50257e-06
 Reference value :  3.50328e-06
 Reference value :  3.50403e-06
 Reference value :  3.50495e-06
 Reference value :  3.50585e-06
 Reference value :  3.50684e-06
 Reference value :  3.50798e-06
 Reference value :  3.50926e-06
 Reference value :  3.51049e-06
 Reference value :  3.51175e-06
 Reference value :  3.51349e-06
 Reference value :  3.51493e-06
 Reference value :  3.51649e-06
 Reference value :  3.51806e-06
 Reference value :  3.51988e-06
 Reference value :  3.52342e-06
 Reference value :  3.52853e-06
 Reference value :  3.53876e-06
 Reference value :  3.55921e-06
 Reference value :  3.60011e-06
 Reference value :  3.68190e-06
 Reference value :  3.75010e-06
 Reference value :  3.75011e-06
 Reference value :  3.75013e-06
 Reference value :  3.75017e-06
 Reference value :  3.75020e-06
 Reference value :  3.75020e-06
 Reference value :  3.75020e-06
 Reference value :  3.75021e-06
 Reference value :  3.75021e-06
 Reference value :  3.75022e-06
 Reference value :  3.75025e-06
 Reference value :  3.75029e-06
 Reference value :  3.75039e-06
 Reference value :  3.75057e-06
 Reference value :  3.75090e-06
 Reference value :  3.75156e-06
 Reference value :  3.75215e-06
 Reference value :  3.75279e-06
 Reference value :  3.75349e-06
 Reference value :  3.75440e-06
 Reference value :  3.75514e-06
 Reference value :  3.75597e-06
 Reference value :  3.75669e-06
 Reference value :  3.75749e-06
 Reference value :  3.75852e-06
 Reference value :  3.75962e-06
 Reference value :  3.76069e-06
 Reference value :  3.76245e-06
 Reference value :  3.76424e-06
 Reference value :  3.76710e-06
 Reference value :  3.77037e-06
 Reference value :  3.77503e-06
 Reference value :  3.78363e-06
 Reference value :  3.79490e-06
 Reference value :  3.81608e-06
 Reference value :  3.85615e-06
 Reference value :  3.92387e-06
 Reference value :  4.00000e-06
 Reference value :  4.00001e-06
 Reference value :  4.00003e-06
 Reference value :  4.00007e-06
 Reference value :  4.00010e-06
 Reference value :  4.00010e-06
 Reference value :  4.00011e-06
 Reference value :  4.00013e-06
 Reference value :  4.00017e-06
 Reference value :  4.00023e-06
 Reference value :  4.00037e-06
 Reference value :  4.00057e-06
 Reference value :  4.00093e-06
 Reference value :  4.00145e-06
 Reference value :  4.00198e-06
 Reference value :  4.00262e-06
 Reference value :  4.00338e-06
 Reference value :  4.00415e-06
 Reference value :  4.00498e-06
 Reference value :  4.00570e-06
 Reference value :  4.00648e-06
 Reference value :  4.00720e-06
 Reference value :  4.00804e-06
 Reference value :  4.00886e-06
 Reference value :  4.00995e-06
 Reference value :  4.01118e-06
 Reference value :  4.01322e-06
 Reference value :  4.01459e-06
 Reference value :  4.01612e-06
 Reference value :  4.01767e-06
 Reference value :  4.01940e-06
 Reference value :  4.02101e-06
 Reference value :  4.02236e-06
 Reference value :  4.02382e-06
 Reference value :  4.02515e-06
 Reference value :  4.02665e-06
 Reference value :  4.02813e-06
 Reference value :  4.02971e-06
 Reference value :  4.03229e-06
 Reference value :  4.03527e-06
 Reference value :  4.04122e-06
 Reference value :  4.05207e-06
 Reference value :  4.06924e-06
 Reference value :  4.08811e-06
 Reference value :  4.11096e-06
 Reference value :  4.13137e-06
 Reference value :  4.15267e-06
 Reference value :  4.17137e-06
 Reference value :  4.19095e-06
 Reference value :  4.21583e-06
 Reference value :  4.25010e-06
 Reference value :  4.25011e-06
 Reference value :  4.25013e-06
 Reference value :  4.25017e-06
 Reference value :  4.25020e-06
 Reference value :  4.25020e-06
 Reference value :  4.25020e-06
 Reference value :  4.25021e-06
 Reference value :  4.25021e-06
 Reference value :  4.25022e-06
 Reference value :  4.25025e-06
 Reference value :  4.25029e-06
 Reference value :  4.25039e-06
 Reference value :  4.25057e-06
 Reference value :  4.25090e-06
 Reference value :  4.25155e-06
 Reference value :  4.25215e-06
 Reference value :  4.25279e-06
 Reference value :  4.25349e-06
 Reference value :  4.25440e-06
 Reference value :  4.25514e-06
 Reference value :  4.25596e-06
 Reference value :  4.25682e-06
 Reference value :  4.25771e-06
 Reference value :  4.25889e-06
 Reference value :  4.26079e-06
 Reference value :  4.26322e-06
 Reference value :  4.26630e-06
 Reference value :  4.27061e-06
 Reference value :  4.27718e-06
 Reference value :  4.29031e-06
 Reference value :  4.31656e-06
 Reference value :  4.36908e-06
 Reference value :  4.47411e-06
 Reference value :  4.50000e-06
 Reference value :  4.50001e-06
 Reference value :  4.50003e-06
 Reference value :  4.50007e-06
 Reference value :  4.50010e-06
 Reference value :  4.50010e-06
 Reference value :  4.50011e-06
 Reference value :  4.50013e-06
 Reference value :  4.50016e-06
 Reference value :  4.50023e-06
 Reference value :  4.50037e-06
 Reference value :  4.50057e-06
 Reference value :  4.50093e-06
 Reference value :  4.50143e-06
 Reference value :  4.50196e-06
 Reference value :  4.50256e-06
 Reference value :  4.50328e-06
 Reference value :  4.50402e-06
 Reference value :  4.50495e-06
 Reference value :  4.50584e-06
 Reference value :  4.50684e-06
 Reference value :  4.50798e-06
 Reference value :  4.50916e-06
 Reference value :  4.51038e-06
 Reference value :  4.51164e-06
 Reference value :  4.51325e-06
 Reference value :  4.51468e-06
 Reference value :  4.51620e-06
 Reference value :  4.51785e-06
 Reference value :  4.51971e-06
 Reference value :  4.52314e-06
 Reference value :  4.52817e-06
 Reference value :  4.53820e-06
 Reference value :  4.55736e-06
 Reference value :  4.59437e-06
 Reference value :  4.66840e-06
 Reference value :  4.75010e-06
 Reference value :  4.75011e-06
 Reference value :  4.75013e-06
 Reference value :  4.75017e-06
 Reference value :  4.75020e-06
 Reference value :  4.75020e-06
 Reference value :  4.75020e-06
 Reference value :  4.75021e-06
 Reference value :  4.75021e-06
 Reference value :  4.75022e-06
 Reference value :  4.75025e-06
 Reference value :  4.75029e-06
 Reference value :  4.75039e-06
 Reference value :  4.75057e-06
 Reference value :  4.75090e-06
 Reference value :  4.75155e-06
 Reference value :  4.75215e-06
 Reference value :  4.75278e-06
 Reference value :  4.75348e-06
 Reference value :  4.75440e-06
 Reference value :  4.75514e-06
 Reference value :  4.75598e-06
 Reference value :  4.75671e-06
 Reference value :  4.75751e-06
 Reference value :  4.75855e-06
 Reference value :  4.75965e-06
 Reference value :  4.76079e-06
 Reference value :  4.76247e-06
 Reference value :  4.76456e-06
 Reference value :  4.76718e-06
 Reference value :  4.77077e-06
 Reference value :  4.77529e-06
 Reference value :  4.78434e-06
 Reference value :  4.79863e-06
 Reference value :  4.82720e-06
 Reference value :  4.88436e-06
 Reference value :  4.99867e-06
 Reference value :  5.00000e-06
 Reference value :  5.00001e-06
 Reference value :  5.00003e-06
 Reference value :  5.00007e-06
 Reference value :  5.00010e-06
 Reference value :  5.00010e-06
 Reference value :  5.00011e-06
 Reference value :  5.00013e-06
 Reference value :  5.00017e-06
 Reference value :  5.00023e-06
 Reference value :  5.00037e-06
 Reference value :  5.00057e-06
 Reference value :  5.00093e-06
 Reference value :  5.00145e-06
 Reference value :  5.00197e-06
 Reference value :  5.00261e-06
 Reference value :  5.00338e-06
 Reference value :  5.00414e-06
 Reference value :  5.00497e-06
 Reference value :  5.00569e-06
 Reference value :  5.00648e-06
 Reference value :  5.00720e-06
 Reference value :  5.00804e-06
 Reference value :  5.00891e-06
 Reference value :  5.00998e-06
 Reference value :  5.01133e-06
 Reference value :  5.01335e-06
 Reference value :  5.01466e-06
 Reference value :  5.01619e-06
 Reference value :  5.01783e-06
 Reference value :  5.01946e-06
 Reference value :  5.02118e-06
 Reference value :  5.02253e-06
 Reference value :  5.02399e-06
 Reference value :  5.02527e-06
 Reference value :  5.02675e-06
 Reference value :  5.02822e-06
 Reference value :  5.02978e-06
 Reference value :  5.03230e-06
 Reference value :  5.03537e-06
 Reference value :  5.04149e-06
 Reference value :  5.05252e-06
 Reference value :  5.06637e-06
 Reference value :  5.08211e-06
 Reference value :  5.09853e-06
 Reference value :  5.11644e-06
 Reference value :  5.13714e-06
 Reference value :  5.15975e-06
 Reference value :  5.20321e-06
 Reference value :  5.25010e-06
 Reference value :  5.25011e-06
 Reference value :  5.25013e-06
 Reference value :  5.25017e-06
 Reference value :  5.25020e-06
 Reference value :  5.25020e-06
 Reference value :  5.25020e-06
 Reference value :  5.25021e-06
 Reference value :  5.25021e-06
 Reference value :  5.25022e-06
 Reference value :  5.25025e-06
 Reference value :  5.25029e-06
 Reference value :  5.25039e-06
 Reference value :  5.25058e-06
 Reference value :  5.25091e-06
 Reference value :  5.25157e-06
 Reference value :  5.25218e-06
 Reference value :  5.25282e-06
 Reference value :  5.25353e-06
 Reference value :  5.25443e-06
 Reference value :  5.25514e-06
 Reference value :  5.25596e-06
 Reference value :  5.25681e-06
 Reference value :  5.25769e-06
 Reference value :  5.25886e-06
 Reference value :  5.26075e-06
 Reference value :  5.26319e-06
 Reference value :  5.26624e-06
 Reference value :  5.27054e-06
 Reference value :  5.27710e-06
 Reference value :  5.29022e-06
 Reference value :  5.31646e-06
 Reference value :  5.36894e-06
 Reference value :  5.47390e-06
 Reference value :  5.50000e-06
 Reference value :  5.50001e-06
 Reference value :  5.50003e-06
 Reference value :  5.50007e-06
 Reference value :  5.50010e-06
 Reference value :  5.50010e-06
 Reference value :  5.50011e-06
 Reference value :  5.50013e-06
 Reference value :  5.50016e-06
 Reference value :  5.50023e-06
 Reference value :  5.50037e-06
 Reference value :  5.50057e-06
 Reference value :  5.50093e-06
 Reference value :  5.50143e-06
 Reference value :  5.50196e-06
 Reference value :  5.50256e-06
 Reference value :  5.50328e-06
 Reference value :  5.50402e-06
 Reference value :  5.50495e-06
 Reference value :  5.50586e-06
 Reference value :  5.50685e-06
 Reference value :  5.50811e-06
 Reference value :  5.50926e-06
 Reference value :  5.51067e-06
 Reference value :  5.51201e-06
 Reference value :  5.51360e-06
 Reference value :  5.51529e-06
 Reference value :  5.51707e-06
 Reference value :  5.51916e-06
 Reference value :  5.52270e-06
 Reference value :  5.52786e-06
 Reference value :  5.53729e-06
 Reference value :  5.55459e-06
 Reference value :  5.58582e-06
 Reference value :  5.64690e-06
 Reference value :  5.75010e-06
 Reference value :  5.75011e-06
 Reference value :  5.75013e-06
 Reference value :  5.75017e-06
 Reference value :  5.75020e-06
 Reference value :  5.75020e-06
 Reference value :  5.75020e-06
 Reference value :  5.75021e-06
 Reference value :  5.75021e-06
 Reference value :  5.75022e-06
 Reference value :  5.75025e-06
 Reference value :  5.75029e-06
 Reference value :  5.75039e-06
 Reference value :  5.75058e-06
 Reference value :  5.75091e-06
 Reference value :  5.75158e-06
 Reference value :  5.75218e-06
 Reference value :  5.75283e-06
 Reference value :  5.75353e-06
 Reference value :  5.75443e-06
 Reference value :  5.75515e-06
 Reference value :  5.75596e-06
 Reference value :  5.75668e-06
 Reference value :  5.75747e-06
 Reference value :  5.75849e-06
 Reference value :  5.75957e-06
 Reference value :  5.76066e-06
 Reference value :  5.76241e-06
 Reference value :  5.76424e-06
 Reference value :  5.76708e-06
 Reference value :  5.77036e-06
 Reference value :  5.77499e-06
 Reference value :  5.78420e-06
 Reference value :  5.79618e-06
 Reference value :  5.81993e-06
 Reference value :  5.86531e-06
 Reference value :  5.95353e-06
 Reference value :  6.00000e-06
 Reference value :  6.00001e-06
 Reference value :  6.00003e-06
 Reference value :  6.00007e-06
 Reference value :  6.00010e-06
 Reference value :  6.00010e-06
 Reference value :  6.00011e-06
 Reference value :  6.00013e-06
 Reference value :  6.00017e-06
 Reference value :  6.00023e-06
 Reference value :  6.00037e-06
 Reference value :  6.00057e-06
 Reference value :  6.00093e-06
 Reference value :  6.00145e-06
 Reference value :  6.00198e-06
 Reference value :  6.00262e-06
 Reference value :  6.00338e-06
 Reference value :  6.00415e-06
 Reference value :  6.00498e-06
 Reference value :  6.00571e-06
 Reference value :  6.00649e-06
 Reference value :  6.00722e-06
 Reference value :  6.00805e-06
 Reference value :  6.00896e-06
 Reference value :  6.01001e-06
 Reference value :  6.01161e-06
 Reference value :  6.01350e-06
 Reference value :  6.01487e-06
 Reference value :  6.01640e-06
 Reference value :  6.01801e-06
 Reference value :  6.01976e-06
 Reference value :  6.02154e-06
 Reference value :  6.02277e-06
 Reference value :  6.02418e-06
 Reference value :  6.02539e-06
 Reference value :  6.02680e-06
 Reference value :  6.02820e-06
 Reference value :  6.02969e-06
 Reference value :  6.03218e-06
 Reference value :  6.03503e-06
 Reference value :  6.04072e-06
 Reference value :  6.05068e-06
 Reference value :  6.06134e-06
 Reference value :  6.07255e-06
 Reference value :  6.08813e-06
 Reference value :  6.10394e-06
 Reference value :  6.12087e-06
 Reference value :  6.14344e-06
 Reference value :  6.16670e-06
 Reference value :  6.20144e-06
 Reference value :  6.23909e-06
 Reference value :  6.25010e-06
 Reference value :  6.25011e-06
 Reference value :  6.25013e-06
 Reference value :  6.25017e-06
 Reference value :  6.25020e-06
 Reference value :  6.25020e-06
 Reference value :  6.25020e-06
 Reference value :  6.25021e-06
 Reference value :  6.25021e-06
 Reference value :  6.25022e-06
 Reference value :  6.25025e-06
 Reference value :  6.25029e-06
 Reference value :  6.25039e-06
 Reference value :  6.25058e-06
 Reference value :  6.25091e-06
 Reference value :  6.25157e-06
 Reference value :  6.25218e-06
 Reference value :  6.25282e-06
 Reference value :  6.25353e-06
 Reference value :  6.25442e-06
 Reference value :  6.25513e-06
 Reference value :  6.25595e-06
 Reference value :  6.25679e-06
 Reference value :  6.25767e-06
 Reference value :  6.25884e-06
 Reference value :  6.26067e-06
 Reference value :  6.26317e-06
 Reference value :  6.26615e-06
 Reference value :  6.27049e-06
 Reference value :  6.27684e-06
 Reference value :  6.28954e-06
 Reference value :  6.31494e-06
 Reference value :  6.36574e-06
 Reference value :  6.46735e-06
 Reference value :  6.50000e-06
 Reference value :  6.50001e-06
 Reference value :  6.50003e-06
 Reference value :  6.50007e-06
 Reference value :  6.50010e-06
 Reference value :  6.50010e-06
 Reference value :  6.50011e-06
 Reference value :  6.50013e-06
 Reference value :  6.50016e-06
 Reference value :  6.50023e-06
 Reference value :  6.50037e-06
 Reference value :  6.50057e-06
 Reference value :  6.50093e-06
 Reference value :  6.50144e-06
 Reference value :  6.50196e-06
 Reference value :  6.50256e-06
 Reference value :  6.50328e-06
 Reference value :  6.50403e-06
 Reference value :  6.50495e-06
 Reference value :  6.50584e-06
 Reference value :  6.50684e-06
 Reference value :  6.50798e-06
 Reference value :  6.50929e-06
 Reference value :  6.51052e-06
 Reference value :  6.51179e-06
 Reference value :  6.51355e-06
 Reference value :  6.51522e-06
 Reference value :  6.51686e-06
 Reference value :  6.51890e-06
 Reference value :  6.52112e-06
 Reference value :  6.52485e-06
 Reference value :  6.53030e-06
 Reference value :  6.53977e-06
 Reference value :  6.55681e-06
 Reference value :  6.58682e-06
 Reference value :  6.64335e-06
 Reference value :  6.74666e-06
 Reference value :  6.75010e-06
 Reference value :  6.75011e-06
 Reference value :  6.75013e-06
 Reference value :  6.75017e-06
 Reference value :  6.75020e-06
 Reference value :  6.75020e-06
 Reference value :  6.75020e-06
 Reference value :  6.75021e-06
 Reference value :  6.75021e-06
 Reference value :  6.75022e-06
 Reference value :  6.75025e-06
 Reference value :  6.75029e-06
 Reference value :  6.75039e-06
 Reference value :  6.75058e-06
 Reference value :  6.75091e-06
 Reference value :  6.75158e-06
 Reference value :  6.75219e-06
 Reference value :  6.75283e-06
 Reference value :  6.75353e-06
 Reference value :  6.75443e-06
 Reference value :  6.75515e-06
 Reference value :  6.75596e-06
 Reference value :  6.75667e-06
 Reference value :  6.75746e-06
 Reference value :  6.75848e-06
 Reference value :  6.75957e-06
 Reference value :  6.76066e-06
 Reference value :  6.76241e-06
 Reference value :  6.76423e-06
 Reference value :  6.76708e-06
 Reference value :  6.77036e-06
 Reference value :  6.77499e-06
 Reference value :  6.78414e-06
 Reference value :  6.79605e-06
 Reference value :  6.81950e-06
 Reference value :  6.86437e-06
 Reference value :  6.95131e-06
 Reference value :  7.00000e-06
 Reference value :  7.00001e-06
 Reference value :  7.00003e-06
 Reference value :  7.00007e-06
 Reference value :  7.00010e-06
 Reference value :  7.00010e-06
 Reference value :  7.00011e-06
 Reference value :  7.00013e-06
 Reference value :  7.00017e-06
 Reference value :  7.00023e-06
 Reference value :  7.00037e-06
 Reference value :  7.00057e-06
 Reference value :  7.00093e-06
 Reference value :  7.00145e-06
 Reference value :  7.00198e-06
 Reference value :  7.00262e-06
 Reference value :  7.00338e-06
 Reference value :  7.00415e-06
 Reference value :  7.00498e-06
 Reference value :  7.00569e-06
 Reference value :  7.00648e-06
 Reference value :  7.00720e-06
 Reference value :  7.00804e-06
 Reference value :  7.00895e-06
 Reference value :  7.01000e-06
 Reference value :  7.01146e-06
 Reference value :  7.01345e-06
 Reference value :  7.01489e-06
 Reference value :  7.01648e-06
 Reference value :  7.01809e-06
 Reference value :  7.01988e-06
 Reference value :  7.02155e-06
 Reference value :  7.02282e-06
 Reference value :  7.02400e-06
 Reference value :  7.02525e-06
 Reference value :  7.02660e-06
 Reference value :  7.02815e-06
 Reference value :  7.02961e-06
 Reference value :  7.03203e-06
 Reference value :  7.03458e-06
 Reference value :  7.03911e-06
 Reference value :  7.04555e-06
 Reference value :  7.05341e-06
 Reference value :  7.06724e-06
 Reference value :  7.09490e-06
 Reference value :  7.12062e-06
 Reference value :  7.13672e-06
 Reference value :  7.15442e-06
 Reference value :  7.17662e-06
 Reference value :  7.20254e-06
 Reference value :  7.23099e-06
 Reference value :  7.25010e-06
 Reference value :  7.25011e-06
 Reference value :  7.25013e-06
 Reference value :  7.25017e-06
 Reference value :  7.25020e-06
 Reference value :  7.25020e-06
 Reference value :  7.25020e-06
 Reference value :  7.25021e-06
 Reference value :  7.25021e-06
 Reference value :  7.25022e-06
 Reference value :  7.25025e-06
 Reference value :  7.25029e-06
 Reference value :  7.25039e-06
 Reference value :  7.25058e-06
 Reference value :  7.25092e-06
 Reference value :  7.25158e-06
 Reference value :  7.25219e-06
 Reference value :  7.25283e-06
 Reference value :  7.25353e-06
 Reference value :  7.25443e-06
 Reference value :  7.25513e-06
 Reference value :  7.25594e-06
 Reference value :  7.25679e-06
 Reference value :  7.25767e-06
 Reference value :  7.25884e-06
 Reference value :  7.26071e-06
 Reference value :  7.26319e-06
 Reference value :  7.26620e-06
 Reference value :  7.27052e-06
 Reference value :  7.27697e-06
 Reference value :  7.28988e-06
 Reference value :  7.31569e-06
 Reference value :  7.36731e-06
 Reference value :  7.47056e-06
 Reference value :  7.50000e-06
 Reference value :  7.50001e-06
 Reference value :  7.50003e-06
 Reference value :  7.50007e-06
 Reference value :  7.50010e-06
 Reference value :  7.50010e-06
 Reference value :  7.50011e-06
 Reference value :  7.50013e-06
 Reference value :  7.50016e-06
 Reference value :  7.50023e-06
 Reference value :  7.50037e-06
 Reference value :  7.50056e-06
 Reference value :  7.50092e-06
 Reference value :  7.50145e-06
 Reference value :  7.50199e-06
 Reference value :  7.50264e-06
 Reference value :  7.50341e-06
 Reference value :  7.50418e-06
 Reference value :  7.50497e-06
 Reference value :  7.50594e-06
 Reference value :  7.50684e-06
 Reference value :  7.50805e-06
 Reference value :  7.50928e-06
 Reference value :  7.51052e-06
 Reference value :  7.51180e-06
 Reference value :  7.51346e-06
 Reference value :  7.51489e-06
 Reference value :  7.51642e-06
 Reference value :  7.51805e-06
 Reference value :  7.51990e-06
 Reference value :  7.52329e-06
 Reference value :  7.52824e-06
 Reference value :  7.53813e-06
 Reference value :  7.55714e-06
 Reference value :  7.59383e-06
 Reference value :  7.66722e-06
 Reference value :  7.75010e-06
 Reference value :  7.75011e-06
 Reference value :  7.75013e-06
 Reference value :  7.75017e-06
 Reference value :  7.75020e-06
 Reference value :  7.75020e-06
 Reference value :  7.75020e-06
 Reference value :  7.75021e-06
 Reference value :  7.75021e-06
 Reference value :  7.75022e-06
 Reference value :  7.75025e-06
 Reference value :  7.75029e-06
 Reference value :  7.75039e-06
 Reference value :  7.75057e-06
 Reference value :  7.75091e-06
 Reference value :  7.75157e-06
 Reference value :  7.75217e-06
 Reference value :  7.75282e-06
 Reference value :  7.75352e-06
 Reference value :  7.75442e-06
 Reference value :  7.75512e-06
 Reference value :  7.75592e-06
 Reference value :  7.75664e-06
 Reference value :  7.75742e-06
 Reference value :  7.75845e-06
 Reference value :  7.75954e-06
 Reference value :  7.76172e-06
 Reference value :  7.76403e-06
 Reference value :  7.76805e-06
 Reference value :  7.77237e-06
 Reference value :  7.78101e-06
 Reference value :  7.79829e-06
 Reference value :  7.83286e-06
 Reference value :  7.90198e-06
 Reference value :  8.00000e-06
 Reference value :  8.00001e-06
 Reference value :  8.00003e-06
 Reference value :  8.00007e-06
 Reference value :  8.00010e-06
 Reference value :  8.00010e-06
 Reference value :  8.00011e-06
 Reference value :  8.00013e-06
 Reference value :  8.00016e-06
 Reference value :  8.00023e-06
 Reference value :  8.00037e-06
 Reference value :  8.00056e-06
 Reference value :  8.00092e-06
 Reference value :  8.00145e-06
 Reference value :  8.00199e-06
 Reference value :  8.00265e-06
 Reference value :  8.00341e-06
 Reference value :  8.00418e-06
 Reference value :  8.00505e-06
 Reference value :  8.00587e-06
 Reference value :  8.00666e-06
 Reference value :  8.00742e-06
 Reference value :  8.00831e-06
 Reference value :  8.00922e-06
 Reference value :  8.01040e-06
 Reference value :  8.01220e-06
 Reference value :  8.01438e-06
 Reference value :  8.01718e-06
 Reference value :  8.01983e-06
 Reference value :  8.02252e-06
 Reference value :  8.02522e-06
 Reference value :  8.02811e-06
 Reference value :  8.03390e-06
 Reference value :  8.04244e-06
 Reference value :  8.05440e-06
 Reference value :  8.07665e-06
 Reference value :  8.12115e-06
 Reference value :  8.21015e-06
 Reference value :  8.25010e-06
 Reference value :  8.25011e-06
 Reference value :  8.25013e-06
 Reference value :  8.25017e-06
 Reference value :  8.25020e-06
 Reference value :  8.25020e-06
 Reference value :  8.25020e-06
 Reference value :  8.25021e-06
 Reference value :  8.25021e-06
 Reference value :  8.25022e-06
 Reference value :  8.25025e-06
 Reference value :  8.25029e-06
 Reference value :  8.25039e-06
 Reference value :  8.25057e-06
 Reference value :  8.25095e-06
 Reference value :  8.25158e-06
 Reference value :  8.25221e-06
 Reference value :  8.25286e-06
 Reference value :  8.25356e-06
 Reference value :  8.25444e-06
 Reference value :  8.25540e-06
 Reference value :  8.25662e-06
 Reference value :  8.25791e-06
 Reference value :  8.25938e-06
 Reference value :  8.26204e-06
 Reference value :  8.26458e-06
 Reference value :  8.26858e-06
 Reference value :  8.27332e-06
 Reference value :  8.28280e-06
 Reference value :  8.30176e-06
 Reference value :  8.33968e-06
 Reference value :  8.41553e-06
 Reference value :  8.50000e-06
No. of Data Rows : 1331
ngspice-44 done
