
Note: Compatibility modes selected: hs a


Circuit: ** sch_path: /home/ece/cace/sar-adc-using-sky130-pdk/runs/run_2025-09-10_19-58-20/parameters/sampling_rate/run_44/sampling_rate.sch

option SCALE: Scale is set to 1e-06 for instance and model parameters
option SCALE: Scale is set to 1e-06 for instance and model parameters
option SCALE: Scale is set to 1e-06 for instance and model parameters
option SCALE: Scale is set to 1e-06 for instance and model parameters
Doing analysis at TEMP = 27.000000 and TNOM = 27.000000

Using KLU as Direct Linear Solver
Operating point simulation skipped by 'uic',
  now using transient initial conditions.
 Reference value :  1.00000e-12
 Reference value :  1.08400e-12
 Reference value :  1.69655e-12
 Reference value :  6.22821e-12
 Reference value :  1.93421e-11
 Reference value :  1.00000e-10
 Reference value :  1.32799e-10
 Reference value :  2.45255e-10
 Reference value :  6.32510e-10
 Reference value :  1.32298e-09
 Reference value :  2.48716e-09
 Reference value :  4.16076e-09
 Reference value :  6.28512e-09
 Reference value :  7.95580e-09
 Reference value :  9.41128e-09
 Reference value :  1.22643e-08
 Reference value :  1.40232e-08
 Reference value :  1.71592e-08
 Reference value :  2.67883e-08
 Reference value :  5.14821e-08
 Reference value :  9.54842e-08
 Reference value :  2.50100e-07
 Reference value :  2.50170e-07
 Reference value :  2.50223e-07
 Reference value :  2.50313e-07
 Reference value :  2.50547e-07
 Reference value :  2.51450e-07
 Reference value :  2.51921e-07
 Reference value :  2.53080e-07
 Reference value :  2.54552e-07
 Reference value :  2.56012e-07
 Reference value :  2.59266e-07
 Reference value :  2.67347e-07
 Reference value :  3.04898e-07
 Reference value :  4.91801e-07
 Reference value :  5.00010e-07
 Reference value :  5.00070e-07
 Reference value :  5.00108e-07
 Reference value :  5.00220e-07
 Reference value :  5.00520e-07
 Reference value :  5.01299e-07
 Reference value :  5.02238e-07
 Reference value :  5.03396e-07
 Reference value :  5.04678e-07
 Reference value :  5.07577e-07
 Reference value :  5.09178e-07
 Reference value :  5.11977e-07
 Reference value :  5.13349e-07
 Reference value :  5.16416e-07
 Reference value :  5.23051e-07
 Reference value :  5.44971e-07
 Reference value :  6.93986e-07
 Reference value :  7.50130e-07
 Reference value :  7.50200e-07
 Reference value :  7.50256e-07
 Reference value :  7.50700e-07
 Reference value :  7.51531e-07
 Reference value :  7.52559e-07
 Reference value :  7.54049e-07
 Reference value :  7.55368e-07
 Reference value :  7.56991e-07
 Reference value :  7.61959e-07
 Reference value :  8.00891e-07
 Reference value :  1.00000e-06
 Reference value :  1.00007e-06
 Reference value :  1.00012e-06
 Reference value :  1.00035e-06
 Reference value :  1.00130e-06
 Reference value :  1.00224e-06
 Reference value :  1.00404e-06
 Reference value :  1.00521e-06
 Reference value :  1.00642e-06
 Reference value :  1.01057e-06
 Reference value :  1.01401e-06
 Reference value :  1.01673e-06
 Reference value :  1.01912e-06
 Reference value :  1.02165e-06
 Reference value :  1.02882e-06
 Reference value :  1.05861e-06
 Reference value :  1.08786e-06
 Reference value :  1.09763e-06
 Reference value :  1.10452e-06
 Reference value :  1.11874e-06
 Reference value :  1.15159e-06
 Reference value :  1.25010e-06
 Reference value :  1.25017e-06
 Reference value :  1.25022e-06
 Reference value :  1.25045e-06
 Reference value :  1.25106e-06
 Reference value :  1.25203e-06
 Reference value :  1.25402e-06
 Reference value :  1.25535e-06
 Reference value :  1.25699e-06
 Reference value :  1.26203e-06
 Reference value :  1.30125e-06
 Reference value :  1.50000e-06
 Reference value :  1.50003e-06
 Reference value :  1.50011e-06
 Reference value :  1.50022e-06
 Reference value :  1.50086e-06
 Reference value :  1.50177e-06
 Reference value :  1.50270e-06
 Reference value :  1.50485e-06
 Reference value :  1.50674e-06
 Reference value :  1.50753e-06
 Reference value :  1.50946e-06
 Reference value :  1.51277e-06
 Reference value :  1.52875e-06
 Reference value :  1.72694e-06
 Reference value :  1.75017e-06
 Reference value :  1.75026e-06
 Reference value :  1.75070e-06
 Reference value :  1.75202e-06
 Reference value :  1.75404e-06
 Reference value :  1.75533e-06
 Reference value :  1.75698e-06
 Reference value :  1.75997e-06
 Reference value :  1.76911e-06
 Reference value :  1.82165e-06
 Reference value :  2.00001e-06
 Reference value :  2.00011e-06
 Reference value :  2.00022e-06
 Reference value :  2.00086e-06
 Reference value :  2.00176e-06
 Reference value :  2.00277e-06
 Reference value :  2.00457e-06
 Reference value :  2.00583e-06
 Reference value :  2.00712e-06
 Reference value :  2.01046e-06
 Reference value :  2.01145e-06
 Reference value :  2.01377e-06
 Reference value :  2.01612e-06
 Reference value :  2.01835e-06
 Reference value :  2.02083e-06
 Reference value :  2.02659e-06
 Reference value :  2.07508e-06
 Reference value :  2.10989e-06
 Reference value :  2.17266e-06
 Reference value :  2.19237e-06
 Reference value :  2.24964e-06
 Reference value :  2.25017e-06
 Reference value :  2.25022e-06
 Reference value :  2.25070e-06
 Reference value :  2.25202e-06
 Reference value :  2.25405e-06
 Reference value :  2.25533e-06
 Reference value :  2.25687e-06
 Reference value :  2.26507e-06
 Reference value :  2.33214e-06
 Reference value :  2.44107e-06
 Reference value :  2.47679e-06
 Reference value :  2.50001e-06
 Reference value :  2.50010e-06
 Reference value :  2.50016e-06
 Reference value :  2.50052e-06
 Reference value :  2.50130e-06
 Reference value :  2.50222e-06
 Reference value :  2.50407e-06
 Reference value :  2.50676e-06
 Reference value :  2.50755e-06
 Reference value :  2.50947e-06
 Reference value :  2.51158e-06
 Reference value :  2.51413e-06
 Reference value :  2.52860e-06
 Reference value :  2.58209e-06
 Reference value :  2.75010e-06
 Reference value :  2.75017e-06
 Reference value :  2.75022e-06
 Reference value :  2.75045e-06
 Reference value :  2.75153e-06
 Reference value :  2.75256e-06
 Reference value :  2.75405e-06
 Reference value :  2.75537e-06
 Reference value :  2.75695e-06
 Reference value :  2.75991e-06
 Reference value :  2.76535e-06
 Reference value :  2.79712e-06
 Reference value :  3.00000e-06
 Reference value :  3.00010e-06
 Reference value :  3.00022e-06
 Reference value :  3.00086e-06
 Reference value :  3.00176e-06
 Reference value :  3.00277e-06
 Reference value :  3.00404e-06
 Reference value :  3.00521e-06
 Reference value :  3.00583e-06
 Reference value :  3.00712e-06
 Reference value :  3.01046e-06
 Reference value :  3.01145e-06
 Reference value :  3.01377e-06
 Reference value :  3.01609e-06
 Reference value :  3.01831e-06
 Reference value :  3.02215e-06
 Reference value :  3.02995e-06
 Reference value :  3.04196e-06
 Reference value :  3.04680e-06
 Reference value :  3.05752e-06
 Reference value :  3.09298e-06
 Reference value :  3.22736e-06
 Reference value :  3.25013e-06
 Reference value :  3.25021e-06
 Reference value :  3.25032e-06
 Reference value :  3.25106e-06
 Reference value :  3.25203e-06
 Reference value :  3.25328e-06
 Reference value :  3.25467e-06
 Reference value :  3.25603e-06
 Reference value :  3.25785e-06
 Reference value :  3.26182e-06
 Reference value :  3.29933e-06
 Reference value :  3.48852e-06
 Reference value :  3.50001e-06
 Reference value :  3.50007e-06
 Reference value :  3.50011e-06
 Reference value :  3.50016e-06
 Reference value :  3.50052e-06
 Reference value :  3.50130e-06
 Reference value :  3.50224e-06
 Reference value :  3.50399e-06
 Reference value :  3.50532e-06
 Reference value :  3.50730e-06
 Reference value :  3.50925e-06
 Reference value :  3.51122e-06
 Reference value :  3.51363e-06
 Reference value :  3.53093e-06
 Reference value :  3.75010e-06
 Reference value :  3.75017e-06
 Reference value :  3.75022e-06
 Reference value :  3.75032e-06
 Reference value :  3.75070e-06
 Reference value :  3.75153e-06
 Reference value :  3.75203e-06
 Reference value :  3.75328e-06
 Reference value :  3.75469e-06
 Reference value :  3.75609e-06
 Reference value :  3.75697e-06
 Reference value :  3.75965e-06
 Reference value :  3.76541e-06
 Reference value :  3.78195e-06
 Reference value :  3.83117e-06
 Reference value :  4.00000e-06
 Reference value :  4.00003e-06
 Reference value :  4.00011e-06
 Reference value :  4.00022e-06
 Reference value :  4.00086e-06
 Reference value :  4.00130e-06
 Reference value :  4.00224e-06
 Reference value :  4.00340e-06
 Reference value :  4.00458e-06
 Reference value :  4.00582e-06
 Reference value :  4.00643e-06
 Reference value :  4.00800e-06
 Reference value :  4.01062e-06
 Reference value :  4.01256e-06
 Reference value :  4.01402e-06
 Reference value :  4.01670e-06
 Reference value :  4.01908e-06
 Reference value :  4.02162e-06
 Reference value :  4.02867e-06
 Reference value :  4.05249e-06
 Reference value :  4.07140e-06
 Reference value :  4.08479e-06
 Reference value :  4.09132e-06
 Reference value :  4.10586e-06
 Reference value :  4.13280e-06
 Reference value :  4.14915e-06
 Reference value :  4.15788e-06
 Reference value :  4.17582e-06
 Reference value :  4.20098e-06
 Reference value :  4.25010e-06
 Reference value :  4.25013e-06
 Reference value :  4.25021e-06
 Reference value :  4.25045e-06
 Reference value :  4.25153e-06
 Reference value :  4.25256e-06
 Reference value :  4.25468e-06
 Reference value :  4.25690e-06
 Reference value :  4.26517e-06
 Reference value :  4.33098e-06
 Reference value :  4.50001e-06
 Reference value :  4.50007e-06
 Reference value :  4.50011e-06
 Reference value :  4.50035e-06
 Reference value :  4.50130e-06
 Reference value :  4.50224e-06
 Reference value :  4.50340e-06
 Reference value :  4.50463e-06
 Reference value :  4.50629e-06
 Reference value :  4.50827e-06
 Reference value :  4.51020e-06
 Reference value :  4.51238e-06
 Reference value :  4.55038e-06
 Reference value :  4.75011e-06
 Reference value :  4.75022e-06
 Reference value :  4.75070e-06
 Reference value :  4.75153e-06
 Reference value :  4.75405e-06
 Reference value :  4.75609e-06
 Reference value :  4.75964e-06
 Reference value :  4.77122e-06
 Reference value :  4.83074e-06
 Reference value :  5.00001e-06
 Reference value :  5.00011e-06
 Reference value :  5.00022e-06
 Reference value :  5.00086e-06
 Reference value :  5.00130e-06
 Reference value :  5.00224e-06
 Reference value :  5.00403e-06
 Reference value :  5.00458e-06
 Reference value :  5.00582e-06
 Reference value :  5.00643e-06
 Reference value :  5.00901e-06
 Reference value :  5.01256e-06
 Reference value :  5.01402e-06
 Reference value :  5.01537e-06
 Reference value :  5.01796e-06
 Reference value :  5.01908e-06
 Reference value :  5.02343e-06
 Reference value :  5.03411e-06
 Reference value :  5.05464e-06
 Reference value :  5.06698e-06
 Reference value :  5.08070e-06
 Reference value :  5.13194e-06
 Reference value :  5.25011e-06
 Reference value :  5.25020e-06
 Reference value :  5.25032e-06
 Reference value :  5.25105e-06
 Reference value :  5.25202e-06
 Reference value :  5.25401e-06
 Reference value :  5.25532e-06
 Reference value :  5.25691e-06
 Reference value :  5.26183e-06
 Reference value :  5.29935e-06
 Reference value :  5.49863e-06
 Reference value :  5.50003e-06
 Reference value :  5.50011e-06
 Reference value :  5.50035e-06
 Reference value :  5.50130e-06
 Reference value :  5.50221e-06
 Reference value :  5.50332e-06
 Reference value :  5.50485e-06
 Reference value :  5.50674e-06
 Reference value :  5.50753e-06
 Reference value :  5.50947e-06
 Reference value :  5.51157e-06
 Reference value :  5.51411e-06
 Reference value :  5.52837e-06
 Reference value :  5.61615e-06
 Reference value :  5.75013e-06
 Reference value :  5.75021e-06
 Reference value :  5.75045e-06
 Reference value :  5.75152e-06
 Reference value :  5.75254e-06
 Reference value :  5.75403e-06
 Reference value :  5.75532e-06
 Reference value :  5.75695e-06
 Reference value :  5.75883e-06
 Reference value :  5.76315e-06
 Reference value :  5.76904e-06
 Reference value :  5.78389e-06
 Reference value :  5.85829e-06
 Reference value :  6.00001e-06
 Reference value :  6.00010e-06
 Reference value :  6.00022e-06
 Reference value :  6.00086e-06
 Reference value :  6.00176e-06
 Reference value :  6.00277e-06
 Reference value :  6.00457e-06
 Reference value :  6.00583e-06
 Reference value :  6.00712e-06
 Reference value :  6.01046e-06
 Reference value :  6.01146e-06
 Reference value :  6.01378e-06
 Reference value :  6.01475e-06
 Reference value :  6.01654e-06
 Reference value :  6.01868e-06
 Reference value :  6.02247e-06
 Reference value :  6.03333e-06
 Reference value :  6.04893e-06
 Reference value :  6.16383e-06
 Reference value :  6.25013e-06
 Reference value :  6.25020e-06
 Reference value :  6.25022e-06
 Reference value :  6.25045e-06
 Reference value :  6.25153e-06
 Reference value :  6.25256e-06
 Reference value :  6.25406e-06
 Reference value :  6.25467e-06
 Reference value :  6.25602e-06
 Reference value :  6.25782e-06
 Reference value :  6.26516e-06
 Reference value :  6.29875e-06
 Reference value :  6.50000e-06
 Reference value :  6.50007e-06
 Reference value :  6.50016e-06
 Reference value :  6.50052e-06
 Reference value :  6.50130e-06
 Reference value :  6.50224e-06
 Reference value :  6.50399e-06
 Reference value :  6.50532e-06
 Reference value :  6.50730e-06
 Reference value :  6.50827e-06
 Reference value :  6.51020e-06
 Reference value :  6.51238e-06
 Reference value :  6.53092e-06
 Reference value :  6.75010e-06
 Reference value :  6.75017e-06
 Reference value :  6.75026e-06
 Reference value :  6.75070e-06
 Reference value :  6.75203e-06
 Reference value :  6.75405e-06
 Reference value :  6.75537e-06
 Reference value :  6.75793e-06
 Reference value :  6.76551e-06
 Reference value :  6.83121e-06
 Reference value :  7.00001e-06
 Reference value :  7.00010e-06
 Reference value :  7.00022e-06
 Reference value :  7.00130e-06
 Reference value :  7.00277e-06
 Reference value :  7.00458e-06
 Reference value :  7.00643e-06
 Reference value :  7.01256e-06
 Reference value :  7.01402e-06
 Reference value :  7.01669e-06
 Reference value :  7.01907e-06
 Reference value :  7.02160e-06
 Reference value :  7.02532e-06
 Reference value :  7.03305e-06
 Reference value :  7.04994e-06
 Reference value :  7.10163e-06
 Reference value :  7.25010e-06
 Reference value :  7.25013e-06
 Reference value :  7.25020e-06
 Reference value :  7.25026e-06
 Reference value :  7.25070e-06
 Reference value :  7.25152e-06
 Reference value :  7.25201e-06
 Reference value :  7.25326e-06
 Reference value :  7.25465e-06
 Reference value :  7.25599e-06
 Reference value :  7.25776e-06
 Reference value :  7.26501e-06
 Reference value :  7.29832e-06
 Reference value :  7.49813e-06
 Reference value :  7.50003e-06
 Reference value :  7.50010e-06
 Reference value :  7.50022e-06
 Reference value :  7.50086e-06
 Reference value :  7.50176e-06
 Reference value :  7.50277e-06
 Reference value :  7.50399e-06
 Reference value :  7.50463e-06
 Reference value :  7.50629e-06
 Reference value :  7.50827e-06
 Reference value :  7.50926e-06
 Reference value :  7.51020e-06
 Reference value :  7.51238e-06
 Reference value :  7.51617e-06
 Reference value :  7.55037e-06
 Reference value :  7.75010e-06
 Reference value :  7.75013e-06
 Reference value :  7.75020e-06
 Reference value :  7.75026e-06
 Reference value :  7.75070e-06
 Reference value :  7.75203e-06
 Reference value :  7.75328e-06
 Reference value :  7.75468e-06
 Reference value :  7.75705e-06
 Reference value :  7.76195e-06
 Reference value :  7.79972e-06
 Reference value :  8.00000e-06
 Reference value :  8.00007e-06
 Reference value :  8.00012e-06
 Reference value :  8.00035e-06
 Reference value :  8.00130e-06
 Reference value :  8.00224e-06
 Reference value :  8.00458e-06
 Reference value :  8.00643e-06
 Reference value :  8.01001e-06
 Reference value :  8.02331e-06
 Reference value :  8.25010e-06
 Reference value :  8.25021e-06
 Reference value :  8.25070e-06
 Reference value :  8.25202e-06
 Reference value :  8.25326e-06
 Reference value :  8.25513e-06
 Reference value :  8.25854e-06
 Reference value :  8.26281e-06
 Reference value :  8.28044e-06
 Reference value :  8.35495e-06
 Reference value :  8.50001e-06
 Reference value :  8.50007e-06
 Reference value :  8.50011e-06
 Reference value :  8.50016e-06
 Reference value :  8.50060e-06
 Reference value :  8.50151e-06
 Reference value :  8.50256e-06
 Reference value :  8.50374e-06
 Reference value :  8.50513e-06
 Reference value :  8.50569e-06
 Reference value :  8.50704e-06
 Reference value :  8.50937e-06
 Reference value :  8.52128e-06
 Reference value :  8.52211e-06
 Reference value :  8.52664e-06
 Reference value :  8.53260e-06
 Reference value :  8.53500e-06
 Reference value :  8.54165e-06
 Reference value :  8.54665e-06
 Reference value :  8.55531e-06
 Reference value :  8.57022e-06
 Reference value :  8.61381e-06
 Reference value :  8.72553e-06
 Reference value :  8.75013e-06
 Reference value :  8.75020e-06
 Reference value :  8.75026e-06
 Reference value :  8.75045e-06
 Reference value :  8.75105e-06
 Reference value :  8.75203e-06
 Reference value :  8.75328e-06
 Reference value :  8.75467e-06
 Reference value :  8.75601e-06
 Reference value :  8.75778e-06
 Reference value :  8.76504e-06
 Reference value :  8.82947e-06
 Reference value :  8.98513e-06
No. of Data Rows : 1340
ngspice-44 done
