
Note: Compatibility modes selected: hs a


Circuit: ** sch_path: /home/issa/cace/sar-adc-using-sky130-pdk/runs/run_2025-09-02_17-09-13/parameters/sndr/run_0/sndr_enob_fom.sch

option SCALE: Scale is set to 1e-06 for instance and model parameters
option SCALE: Scale is set to 1e-06 for instance and model parameters
option SCALE: Scale is set to 1e-06 for instance and model parameters
option SCALE: Scale is set to 1e-06 for instance and model parameters
Doing analysis at TEMP = 27.000000 and TNOM = 27.000000

Using KLU as Direct Linear Solver
Operating point simulation skipped by 'uic',
  now using transient initial conditions.
 Reference value :  1.00000e-12
 Reference value :  1.02386e-12
 Reference value :  1.07159e-12
 Reference value :  1.14212e-12
 Reference value :  1.22025e-12
 Reference value :  1.35926e-12
 Reference value :  1.57506e-12
 Reference value :  1.90712e-12
 Reference value :  2.54095e-12
 Reference value :  3.47547e-12
 Reference value :  4.89851e-12
 Reference value :  6.43052e-12
 Reference value :  8.78290e-12
 Reference value :  1.27924e-11
 Reference value :  1.81590e-11
 Reference value :  2.51097e-11
 Reference value :  3.40528e-11
 Reference value :  4.41123e-11
 Reference value :  5.97310e-11
 Reference value :  7.75148e-11
 Reference value :  1.00000e-10
 Reference value :  1.00436e-10
 Reference value :  1.01307e-10
 Reference value :  1.03050e-10
 Reference value :  1.06512e-10
 Reference value :  1.13436e-10
 Reference value :  1.27285e-10
 Reference value :  1.54982e-10
 Reference value :  1.92459e-10
 Reference value :  2.41406e-10
 Reference value :  3.10744e-10
 Reference value :  4.40489e-10
 Reference value :  6.71091e-10
 Reference value :  9.67225e-10
 Reference value :  1.39285e-09
 Reference value :  1.91471e-09
 Reference value :  2.66584e-09
 Reference value :  3.55878e-09
 Reference value :  4.53247e-09
 Reference value :  5.36024e-09
 Reference value :  6.27313e-09
 Reference value :  7.11725e-09
 Reference value :  7.99560e-09
 Reference value :  9.02985e-09
 Reference value :  1.01257e-08
 Reference value :  1.12938e-08
 Reference value :  1.26671e-08
 Reference value :  1.36152e-08
 Reference value :  1.46982e-08
 Reference value :  1.59230e-08
 Reference value :  1.71362e-08
 Reference value :  1.83394e-08
 Reference value :  1.97870e-08
 Reference value :  2.11460e-08
 Reference value :  2.28619e-08
 Reference value :  2.41665e-08
 Reference value :  2.57858e-08
 Reference value :  2.78209e-08
 Reference value :  3.06918e-08
 Reference value :  3.38405e-08
 Reference value :  3.86956e-08
 Reference value :  4.60398e-08
 Reference value :  5.57961e-08
 Reference value :  6.63354e-08
 Reference value :  8.29735e-08
 Reference value :  1.02557e-07
 Reference value :  1.32081e-07
 Reference value :  1.51224e-07
 Reference value :  1.62457e-07
 Reference value :  1.69442e-07
 Reference value :  1.76524e-07
 Reference value :  1.83725e-07
 Reference value :  1.90434e-07
 Reference value :  1.98160e-07
 Reference value :  2.13613e-07
 Reference value :  2.37234e-07
 Reference value :  2.50100e-07
 Reference value :  2.50110e-07
 Reference value :  2.50130e-07
 Reference value :  2.50170e-07
 Reference value :  2.50200e-07
 Reference value :  2.50201e-07
 Reference value :  2.50202e-07
 Reference value :  2.50204e-07
 Reference value :  2.50208e-07
 Reference value :  2.50216e-07
 Reference value :  2.50232e-07
 Reference value :  2.50265e-07
 Reference value :  2.50331e-07
 Reference value :  2.50414e-07
 Reference value :  2.50579e-07
 Reference value :  2.50745e-07
 Reference value :  2.51077e-07
 Reference value :  2.51464e-07
 Reference value :  2.52140e-07
 Reference value :  2.52795e-07
 Reference value :  2.53526e-07
 Reference value :  2.54495e-07
 Reference value :  2.55498e-07
 Reference value :  2.56524e-07
 Reference value :  2.57712e-07
 Reference value :  2.58782e-07
 Reference value :  2.60118e-07
 Reference value :  2.61341e-07
 Reference value :  2.62996e-07
 Reference value :  2.65877e-07
 Reference value :  2.69824e-07
 Reference value :  2.77597e-07
 Reference value :  2.91221e-07
 Reference value :  3.14907e-07
 Reference value :  3.59502e-07
 Reference value :  4.37301e-07
 Reference value :  5.00000e-07
 Reference value :  5.00010e-07
 Reference value :  5.00030e-07
 Reference value :  5.00070e-07
 Reference value :  5.00100e-07
 Reference value :  5.00101e-07
 Reference value :  5.00102e-07
 Reference value :  5.00104e-07
 Reference value :  5.00108e-07
 Reference value :  5.00116e-07
 Reference value :  5.00133e-07
 Reference value :  5.00166e-07
 Reference value :  5.00232e-07
 Reference value :  5.00364e-07
 Reference value :  5.00562e-07
 Reference value :  5.00958e-07
 Reference value :  5.01468e-07
 Reference value :  5.02005e-07
 Reference value :  5.02765e-07
 Reference value :  5.03572e-07
 Reference value :  5.04320e-07
 Reference value :  5.05131e-07
 Reference value :  5.06131e-07
 Reference value :  5.07172e-07
 Reference value :  5.08392e-07
 Reference value :  5.09756e-07
 Reference value :  5.11601e-07
 Reference value :  5.13517e-07
 Reference value :  5.15467e-07
 Reference value :  5.17393e-07
 Reference value :  5.19741e-07
 Reference value :  5.23774e-07
 Reference value :  5.26843e-07
 Reference value :  5.30514e-07
 Reference value :  5.34289e-07
 Reference value :  5.38213e-07
 Reference value :  5.44504e-07
 Reference value :  5.50249e-07
 Reference value :  5.60161e-07
 Reference value :  5.73046e-07
 Reference value :  5.98815e-07
 Reference value :  6.49240e-07
 Reference value :  7.33997e-07
 Reference value :  7.50100e-07
 Reference value :  7.50110e-07
 Reference value :  7.50130e-07
 Reference value :  7.50170e-07
 Reference value :  7.50200e-07
 Reference value :  7.50201e-07
 Reference value :  7.50202e-07
 Reference value :  7.50204e-07
 Reference value :  7.50208e-07
 Reference value :  7.50216e-07
 Reference value :  7.50233e-07
 Reference value :  7.50266e-07
 Reference value :  7.50333e-07
 Reference value :  7.50467e-07
 Reference value :  7.50644e-07
 Reference value :  7.50914e-07
 Reference value :  7.51453e-07
 Reference value :  7.52099e-07
 Reference value :  7.52800e-07
 Reference value :  7.53529e-07
 Reference value :  7.54426e-07
 Reference value :  7.55524e-07
 Reference value :  7.56676e-07
 Reference value :  7.57702e-07
 Reference value :  7.58796e-07
 Reference value :  7.59790e-07
 Reference value :  7.60838e-07
 Reference value :  7.62071e-07
 Reference value :  7.63367e-07
 Reference value :  7.64935e-07
 Reference value :  7.66860e-07
 Reference value :  7.69489e-07
 Reference value :  7.72562e-07
 Reference value :  7.77450e-07
 Reference value :  7.87224e-07
 Reference value :  8.04390e-07
 Reference value :  8.36288e-07
 Reference value :  8.96038e-07
 Reference value :  1.00000e-06
 Reference value :  1.00001e-06
 Reference value :  1.00003e-06
 Reference value :  1.00007e-06
 Reference value :  1.00010e-06
 Reference value :  1.00010e-06
 Reference value :  1.00010e-06
 Reference value :  1.00010e-06
 Reference value :  1.00011e-06
 Reference value :  1.00012e-06
 Reference value :  1.00013e-06
 Reference value :  1.00017e-06
 Reference value :  1.00023e-06
 Reference value :  1.00036e-06
 Reference value :  1.00056e-06
 Reference value :  1.00096e-06
 Reference value :  1.00147e-06
 Reference value :  1.00201e-06
 Reference value :  1.00276e-06
 Reference value :  1.00346e-06
 Reference value :  1.00420e-06
 Reference value :  1.00499e-06
 Reference value :  1.00587e-06
 Reference value :  1.00691e-06
 Reference value :  1.00768e-06
 Reference value :  1.00855e-06
 Reference value :  1.00939e-06
 Reference value :  1.01026e-06
 Reference value :  1.01144e-06
 Reference value :  1.01269e-06
 Reference value :  1.01520e-06
 Reference value :  1.01755e-06
 Reference value :  1.01942e-06
 Reference value :  1.02149e-06
 Reference value :  1.02430e-06
 Reference value :  1.02655e-06
 Reference value :  1.02857e-06
 Reference value :  1.03009e-06
 Reference value :  1.03149e-06
 Reference value :  1.03302e-06
 Reference value :  1.03459e-06
 Reference value :  1.03636e-06
 Reference value :  1.03916e-06
 Reference value :  1.04207e-06
 Reference value :  1.04789e-06
 Reference value :  1.05662e-06
 Reference value :  1.07107e-06
 Reference value :  1.09836e-06
 Reference value :  1.14367e-06
 Reference value :  1.22248e-06
 Reference value :  1.25010e-06
 Reference value :  1.25011e-06
 Reference value :  1.25013e-06
 Reference value :  1.25017e-06
 Reference value :  1.25020e-06
 Reference value :  1.25020e-06
 Reference value :  1.25020e-06
 Reference value :  1.25020e-06
 Reference value :  1.25021e-06
 Reference value :  1.25022e-06
 Reference value :  1.25023e-06
 Reference value :  1.25027e-06
 Reference value :  1.25033e-06
 Reference value :  1.25047e-06
 Reference value :  1.25064e-06
 Reference value :  1.25091e-06
 Reference value :  1.25145e-06
 Reference value :  1.25210e-06
 Reference value :  1.25288e-06
 Reference value :  1.25358e-06
 Reference value :  1.25455e-06
 Reference value :  1.25561e-06
 Reference value :  1.25652e-06
 Reference value :  1.25760e-06
 Reference value :  1.25871e-06
 Reference value :  1.25986e-06
 Reference value :  1.26136e-06
 Reference value :  1.26388e-06
 Reference value :  1.26734e-06
 Reference value :  1.27244e-06
 Reference value :  1.28264e-06
 Reference value :  1.29881e-06
 Reference value :  1.33075e-06
 Reference value :  1.39463e-06
 Reference value :  1.50000e-06
 Reference value :  1.50001e-06
 Reference value :  1.50003e-06
 Reference value :  1.50007e-06
 Reference value :  1.50010e-06
 Reference value :  1.50010e-06
 Reference value :  1.50010e-06
 Reference value :  1.50010e-06
 Reference value :  1.50011e-06
 Reference value :  1.50012e-06
 Reference value :  1.50013e-06
 Reference value :  1.50017e-06
 Reference value :  1.50023e-06
 Reference value :  1.50036e-06
 Reference value :  1.50056e-06
 Reference value :  1.50095e-06
 Reference value :  1.50146e-06
 Reference value :  1.50200e-06
 Reference value :  1.50275e-06
 Reference value :  1.50344e-06
 Reference value :  1.50417e-06
 Reference value :  1.50501e-06
 Reference value :  1.50593e-06
 Reference value :  1.50690e-06
 Reference value :  1.50791e-06
 Reference value :  1.50963e-06
 Reference value :  1.51119e-06
 Reference value :  1.51316e-06
 Reference value :  1.51475e-06
 Reference value :  1.51645e-06
 Reference value :  1.51871e-06
 Reference value :  1.52104e-06
 Reference value :  1.52494e-06
 Reference value :  1.53011e-06
 Reference value :  1.53821e-06
 Reference value :  1.55111e-06
 Reference value :  1.57404e-06
 Reference value :  1.61741e-06
 Reference value :  1.69497e-06
 Reference value :  1.75010e-06
 Reference value :  1.75011e-06
 Reference value :  1.75013e-06
 Reference value :  1.75017e-06
 Reference value :  1.75020e-06
 Reference value :  1.75020e-06
 Reference value :  1.75020e-06
 Reference value :  1.75020e-06
 Reference value :  1.75021e-06
 Reference value :  1.75022e-06
 Reference value :  1.75023e-06
 Reference value :  1.75027e-06
 Reference value :  1.75033e-06
 Reference value :  1.75047e-06
 Reference value :  1.75064e-06
 Reference value :  1.75091e-06
 Reference value :  1.75145e-06
 Reference value :  1.75210e-06
 Reference value :  1.75288e-06
 Reference value :  1.75358e-06
 Reference value :  1.75454e-06
 Reference value :  1.75561e-06
 Reference value :  1.75653e-06
 Reference value :  1.75762e-06
 Reference value :  1.75853e-06
 Reference value :  1.75951e-06
 Reference value :  1.76064e-06
 Reference value :  1.76188e-06
 Reference value :  1.76337e-06
 Reference value :  1.76496e-06
 Reference value :  1.76739e-06
 Reference value :  1.77000e-06
 Reference value :  1.77435e-06
 Reference value :  1.78304e-06
 Reference value :  1.79603e-06
 Reference value :  1.82144e-06
 Reference value :  1.86422e-06
 Reference value :  1.93984e-06
 Reference value :  2.00000e-06
 Reference value :  2.00001e-06
 Reference value :  2.00003e-06
 Reference value :  2.00007e-06
 Reference value :  2.00010e-06
 Reference value :  2.00010e-06
 Reference value :  2.00010e-06
 Reference value :  2.00010e-06
 Reference value :  2.00011e-06
 Reference value :  2.00012e-06
 Reference value :  2.00013e-06
 Reference value :  2.00017e-06
 Reference value :  2.00023e-06
 Reference value :  2.00036e-06
 Reference value :  2.00056e-06
 Reference value :  2.00095e-06
 Reference value :  2.00146e-06
 Reference value :  2.00200e-06
 Reference value :  2.00275e-06
 Reference value :  2.00345e-06
 Reference value :  2.00418e-06
 Reference value :  2.00498e-06
 Reference value :  2.00586e-06
 Reference value :  2.00661e-06
 Reference value :  2.00746e-06
 Reference value :  2.00819e-06
 Reference value :  2.00904e-06
 Reference value :  2.01011e-06
 Reference value :  2.01122e-06
 Reference value :  2.01323e-06
 Reference value :  2.01537e-06
 Reference value :  2.01761e-06
 Reference value :  2.01983e-06
 Reference value :  2.02193e-06
 Reference value :  2.02420e-06
 Reference value :  2.02602e-06
 Reference value :  2.02744e-06
 Reference value :  2.02898e-06
 Reference value :  2.03071e-06
 Reference value :  2.03258e-06
 Reference value :  2.03463e-06
 Reference value :  2.03764e-06
 Reference value :  2.04133e-06
 Reference value :  2.04870e-06
 Reference value :  2.05851e-06
 Reference value :  2.07623e-06
 Reference value :  2.09874e-06
 Reference value :  2.12722e-06
 Reference value :  2.15418e-06
 Reference value :  2.17897e-06
 Reference value :  2.19512e-06
 Reference value :  2.21068e-06
 Reference value :  2.23069e-06
 Reference value :  2.25010e-06
 Reference value :  2.25011e-06
 Reference value :  2.25013e-06
 Reference value :  2.25017e-06
 Reference value :  2.25020e-06
 Reference value :  2.25020e-06
 Reference value :  2.25020e-06
 Reference value :  2.25020e-06
 Reference value :  2.25021e-06
 Reference value :  2.25022e-06
 Reference value :  2.25023e-06
 Reference value :  2.25027e-06
 Reference value :  2.25033e-06
 Reference value :  2.25047e-06
 Reference value :  2.25064e-06
 Reference value :  2.25091e-06
 Reference value :  2.25145e-06
 Reference value :  2.25210e-06
 Reference value :  2.25288e-06
 Reference value :  2.25358e-06
 Reference value :  2.25454e-06
 Reference value :  2.25561e-06
 Reference value :  2.25661e-06
 Reference value :  2.25770e-06
 Reference value :  2.25881e-06
 Reference value :  2.26038e-06
 Reference value :  2.26246e-06
 Reference value :  2.26502e-06
 Reference value :  2.26892e-06
 Reference value :  2.27556e-06
 Reference value :  2.28653e-06
 Reference value :  2.30478e-06
 Reference value :  2.34127e-06
 Reference value :  2.39740e-06
 Reference value :  2.46071e-06
 Reference value :  2.50000e-06
 Reference value :  2.50001e-06
 Reference value :  2.50003e-06
 Reference value :  2.50007e-06
 Reference value :  2.50010e-06
 Reference value :  2.50010e-06
 Reference value :  2.50010e-06
 Reference value :  2.50010e-06
 Reference value :  2.50011e-06
 Reference value :  2.50012e-06
 Reference value :  2.50013e-06
 Reference value :  2.50017e-06
 Reference value :  2.50023e-06
 Reference value :  2.50036e-06
 Reference value :  2.50055e-06
 Reference value :  2.50091e-06
 Reference value :  2.50141e-06
 Reference value :  2.50194e-06
 Reference value :  2.50269e-06
 Reference value :  2.50338e-06
 Reference value :  2.50409e-06
 Reference value :  2.50487e-06
 Reference value :  2.50575e-06
 Reference value :  2.50669e-06
 Reference value :  2.50793e-06
 Reference value :  2.50945e-06
 Reference value :  2.51166e-06
 Reference value :  2.51317e-06
 Reference value :  2.51482e-06
 Reference value :  2.51648e-06
 Reference value :  2.51877e-06
 Reference value :  2.52127e-06
 Reference value :  2.52549e-06
 Reference value :  2.53148e-06
 Reference value :  2.54111e-06
 Reference value :  2.55985e-06
 Reference value :  2.58939e-06
 Reference value :  2.64380e-06
 Reference value :  2.73722e-06
 Reference value :  2.75010e-06
 Reference value :  2.75011e-06
 Reference value :  2.75013e-06
 Reference value :  2.75017e-06
 Reference value :  2.75020e-06
 Reference value :  2.75020e-06
 Reference value :  2.75020e-06
 Reference value :  2.75020e-06
 Reference value :  2.75021e-06
 Reference value :  2.75022e-06
 Reference value :  2.75023e-06
 Reference value :  2.75027e-06
 Reference value :  2.75033e-06
 Reference value :  2.75047e-06
 Reference value :  2.75064e-06
 Reference value :  2.75091e-06
 Reference value :  2.75145e-06
 Reference value :  2.75210e-06
 Reference value :  2.75287e-06
 Reference value :  2.75358e-06
 Reference value :  2.75455e-06
 Reference value :  2.75561e-06
 Reference value :  2.75658e-06
 Reference value :  2.75748e-06
 Reference value :  2.75844e-06
 Reference value :  2.75955e-06
 Reference value :  2.76080e-06
 Reference value :  2.76330e-06
 Reference value :  2.76642e-06
 Reference value :  2.77101e-06
 Reference value :  2.77932e-06
 Reference value :  2.79441e-06
 Reference value :  2.81964e-06
 Reference value :  2.87008e-06
 Reference value :  2.97097e-06
 Reference value :  3.00000e-06
 Reference value :  3.00001e-06
 Reference value :  3.00003e-06
 Reference value :  3.00007e-06
 Reference value :  3.00010e-06
 Reference value :  3.00010e-06
 Reference value :  3.00010e-06
 Reference value :  3.00010e-06
 Reference value :  3.00011e-06
 Reference value :  3.00012e-06
 Reference value :  3.00013e-06
 Reference value :  3.00017e-06
 Reference value :  3.00023e-06
 Reference value :  3.00036e-06
 Reference value :  3.00055e-06
 Reference value :  3.00091e-06
 Reference value :  3.00141e-06
 Reference value :  3.00194e-06
 Reference value :  3.00269e-06
 Reference value :  3.00338e-06
 Reference value :  3.00409e-06
 Reference value :  3.00487e-06
 Reference value :  3.00574e-06
 Reference value :  3.00666e-06
 Reference value :  3.00762e-06
 Reference value :  3.00843e-06
 Reference value :  3.00934e-06
 Reference value :  3.01049e-06
 Reference value :  3.01172e-06
 Reference value :  3.01403e-06
 Reference value :  3.01619e-06
 Reference value :  3.01901e-06
 Reference value :  3.02130e-06
 Reference value :  3.02337e-06
 Reference value :  3.02483e-06
 Reference value :  3.02636e-06
 Reference value :  3.02794e-06
 Reference value :  3.02955e-06
 Reference value :  3.03140e-06
 Reference value :  3.03465e-06
 Reference value :  3.03759e-06
 Reference value :  3.04346e-06
 Reference value :  3.05248e-06
 Reference value :  3.06638e-06
 Reference value :  3.08111e-06
 Reference value :  3.09499e-06
 Reference value :  3.10394e-06
 Reference value :  3.11264e-06
 Reference value :  3.11985e-06
 Reference value :  3.12756e-06
 Reference value :  3.13512e-06
 Reference value :  3.14304e-06
 Reference value :  3.15889e-06
 Reference value :  3.17661e-06
 Reference value :  3.20597e-06
 Reference value :  3.25010e-06
 Reference value :  3.25011e-06
 Reference value :  3.25013e-06
 Reference value :  3.25017e-06
 Reference value :  3.25020e-06
 Reference value :  3.25020e-06
 Reference value :  3.25020e-06
 Reference value :  3.25020e-06
 Reference value :  3.25021e-06
 Reference value :  3.25022e-06
 Reference value :  3.25023e-06
 Reference value :  3.25027e-06
 Reference value :  3.25033e-06
 Reference value :  3.25047e-06
 Reference value :  3.25064e-06
 Reference value :  3.25091e-06
 Reference value :  3.25145e-06
 Reference value :  3.25210e-06
 Reference value :  3.25287e-06
 Reference value :  3.25358e-06
 Reference value :  3.25455e-06
 Reference value :  3.25561e-06
 Reference value :  3.25658e-06
 Reference value :  3.25758e-06
 Reference value :  3.25864e-06
 Reference value :  3.26037e-06
 Reference value :  3.26199e-06
 Reference value :  3.26480e-06
 Reference value :  3.26828e-06
 Reference value :  3.27518e-06
 Reference value :  3.28623e-06
 Reference value :  3.30460e-06
 Reference value :  3.34134e-06
 Reference value :  3.41339e-06
 Reference value :  3.50000e-06
 Reference value :  3.50001e-06
 Reference value :  3.50003e-06
 Reference value :  3.50007e-06
 Reference value :  3.50010e-06
 Reference value :  3.50010e-06
 Reference value :  3.50010e-06
 Reference value :  3.50010e-06
 Reference value :  3.50011e-06
 Reference value :  3.50012e-06
 Reference value :  3.50013e-06
 Reference value :  3.50017e-06
 Reference value :  3.50023e-06
 Reference value :  3.50036e-06
 Reference value :  3.50055e-06
 Reference value :  3.50091e-06
 Reference value :  3.50141e-06
 Reference value :  3.50194e-06
 Reference value :  3.50269e-06
 Reference value :  3.50338e-06
 Reference value :  3.50410e-06
 Reference value :  3.50490e-06
 Reference value :  3.50579e-06
 Reference value :  3.50677e-06
 Reference value :  3.50802e-06
 Reference value :  3.50960e-06
 Reference value :  3.51111e-06
 Reference value :  3.51269e-06
 Reference value :  3.51430e-06
 Reference value :  3.51594e-06
 Reference value :  3.51763e-06
 Reference value :  3.51992e-06
 Reference value :  3.52231e-06
 Reference value :  3.52666e-06
 Reference value :  3.53290e-06
 Reference value :  3.54372e-06
 Reference value :  3.56328e-06
 Reference value :  3.59668e-06
 Reference value :  3.65921e-06
 Reference value :  3.75010e-06
 Reference value :  3.75011e-06
 Reference value :  3.75013e-06
 Reference value :  3.75017e-06
 Reference value :  3.75020e-06
 Reference value :  3.75020e-06
 Reference value :  3.75020e-06
 Reference value :  3.75020e-06
 Reference value :  3.75021e-06
 Reference value :  3.75022e-06
 Reference value :  3.75023e-06
 Reference value :  3.75027e-06
 Reference value :  3.75033e-06
 Reference value :  3.75047e-06
 Reference value :  3.75064e-06
 Reference value :  3.75091e-06
 Reference value :  3.75145e-06
 Reference value :  3.75210e-06
 Reference value :  3.75288e-06
 Reference value :  3.75358e-06
 Reference value :  3.75455e-06
 Reference value :  3.75561e-06
 Reference value :  3.75651e-06
 Reference value :  3.75749e-06
 Reference value :  3.75843e-06
 Reference value :  3.75946e-06
 Reference value :  3.76064e-06
 Reference value :  3.76202e-06
 Reference value :  3.76348e-06
 Reference value :  3.76599e-06
 Reference value :  3.76855e-06
 Reference value :  3.77220e-06
 Reference value :  3.77739e-06
 Reference value :  3.78778e-06
 Reference value :  3.80856e-06
 Reference value :  3.85011e-06
 Reference value :  3.93321e-06
 Reference value :  4.00000e-06
 Reference value :  4.00001e-06
 Reference value :  4.00003e-06
 Reference value :  4.00007e-06
 Reference value :  4.00010e-06
 Reference value :  4.00010e-06
 Reference value :  4.00010e-06
 Reference value :  4.00010e-06
 Reference value :  4.00011e-06
 Reference value :  4.00012e-06
 Reference value :  4.00013e-06
 Reference value :  4.00017e-06
 Reference value :  4.00023e-06
 Reference value :  4.00036e-06
 Reference value :  4.00055e-06
 Reference value :  4.00091e-06
 Reference value :  4.00141e-06
 Reference value :  4.00194e-06
 Reference value :  4.00269e-06
 Reference value :  4.00337e-06
 Reference value :  4.00409e-06
 Reference value :  4.00487e-06
 Reference value :  4.00575e-06
 Reference value :  4.00648e-06
 Reference value :  4.00727e-06
 Reference value :  4.00802e-06
 Reference value :  4.00888e-06
 Reference value :  4.00970e-06
 Reference value :  4.01095e-06
 Reference value :  4.01209e-06
 Reference value :  4.01418e-06
 Reference value :  4.01639e-06
 Reference value :  4.01810e-06
 Reference value :  4.01998e-06
 Reference value :  4.02247e-06
 Reference value :  4.02454e-06
 Reference value :  4.02612e-06
 Reference value :  4.02759e-06
 Reference value :  4.02919e-06
 Reference value :  4.03083e-06
 Reference value :  4.03271e-06
 Reference value :  4.03582e-06
 Reference value :  4.03887e-06
 Reference value :  4.04497e-06
 Reference value :  4.05089e-06
 Reference value :  4.05740e-06
 Reference value :  4.06218e-06
 Reference value :  4.06608e-06
 Reference value :  4.06922e-06
 Reference value :  4.07267e-06
 Reference value :  4.07873e-06
 Reference value :  4.08582e-06
 Reference value :  4.09774e-06
 Reference value :  4.11670e-06
 Reference value :  4.13554e-06
 Reference value :  4.16239e-06
 Reference value :  4.19435e-06
 Reference value :  4.24560e-06
 Reference value :  4.25010e-06
 Reference value :  4.25011e-06
 Reference value :  4.25013e-06
 Reference value :  4.25017e-06
 Reference value :  4.25020e-06
 Reference value :  4.25020e-06
 Reference value :  4.25020e-06
 Reference value :  4.25020e-06
 Reference value :  4.25021e-06
 Reference value :  4.25022e-06
 Reference value :  4.25023e-06
 Reference value :  4.25027e-06
 Reference value :  4.25033e-06
 Reference value :  4.25042e-06
 Reference value :  4.25058e-06
 Reference value :  4.25077e-06
 Reference value :  4.25109e-06
 Reference value :  4.25172e-06
 Reference value :  4.25234e-06
 Reference value :  4.25304e-06
 Reference value :  4.25378e-06
 Reference value :  4.25472e-06
 Reference value :  4.25556e-06
 Reference value :  4.25650e-06
 Reference value :  4.25744e-06
 Reference value :  4.25841e-06
 Reference value :  4.25998e-06
 Reference value :  4.26157e-06
 Reference value :  4.26422e-06
 Reference value :  4.26766e-06
 Reference value :  4.27320e-06
 Reference value :  4.28428e-06
 Reference value :  4.30645e-06
 Reference value :  4.35079e-06
 Reference value :  4.43946e-06
 Reference value :  4.50000e-06
 Reference value :  4.50001e-06
 Reference value :  4.50003e-06
 Reference value :  4.50007e-06
 Reference value :  4.50010e-06
 Reference value :  4.50010e-06
 Reference value :  4.50010e-06
 Reference value :  4.50010e-06
 Reference value :  4.50011e-06
 Reference value :  4.50012e-06
 Reference value :  4.50013e-06
 Reference value :  4.50017e-06
 Reference value :  4.50023e-06
 Reference value :  4.50036e-06
 Reference value :  4.50062e-06
 Reference value :  4.50109e-06
 Reference value :  4.50174e-06
 Reference value :  4.50246e-06
 Reference value :  4.50308e-06
 Reference value :  4.50385e-06
 Reference value :  4.50470e-06
 Reference value :  4.50557e-06
 Reference value :  4.50646e-06
 Reference value :  4.50746e-06
 Reference value :  4.50877e-06
 Reference value :  4.51038e-06
 Reference value :  4.51159e-06
 Reference value :  4.51297e-06
 Reference value :  4.51454e-06
 Reference value :  4.51624e-06
 Reference value :  4.51793e-06
 Reference value :  4.52132e-06
 Reference value :  4.52811e-06
 Reference value :  4.54168e-06
 Reference value :  4.56881e-06
 Reference value :  4.62308e-06
 Reference value :  4.73162e-06
 Reference value :  4.75010e-06
 Reference value :  4.75011e-06
 Reference value :  4.75013e-06
 Reference value :  4.75017e-06
 Reference value :  4.75020e-06
 Reference value :  4.75020e-06
 Reference value :  4.75020e-06
 Reference value :  4.75020e-06
 Reference value :  4.75021e-06
 Reference value :  4.75022e-06
 Reference value :  4.75023e-06
 Reference value :  4.75027e-06
 Reference value :  4.75033e-06
 Reference value :  4.75042e-06
 Reference value :  4.75058e-06
 Reference value :  4.75077e-06
 Reference value :  4.75108e-06
 Reference value :  4.75171e-06
 Reference value :  4.75233e-06
 Reference value :  4.75303e-06
 Reference value :  4.75376e-06
 Reference value :  4.75471e-06
 Reference value :  4.75554e-06
 Reference value :  4.75647e-06
 Reference value :  4.75729e-06
 Reference value :  4.75818e-06
 Reference value :  4.75919e-06
 Reference value :  4.76035e-06
 Reference value :  4.76267e-06
 Reference value :  4.76561e-06
 Reference value :  4.76986e-06
 Reference value :  4.77700e-06
 Reference value :  4.79129e-06
 Reference value :  4.81987e-06
 Reference value :  4.87704e-06
 Reference value :  4.99136e-06
 Reference value :  5.00000e-06
 Reference value :  5.00001e-06
 Reference value :  5.00003e-06
 Reference value :  5.00007e-06
 Reference value :  5.00010e-06
 Reference value :  5.00010e-06
 Reference value :  5.00010e-06
 Reference value :  5.00010e-06
 Reference value :  5.00011e-06
 Reference value :  5.00012e-06
 Reference value :  5.00013e-06
 Reference value :  5.00017e-06
 Reference value :  5.00023e-06
 Reference value :  5.00036e-06
 Reference value :  5.00062e-06
 Reference value :  5.00109e-06
 Reference value :  5.00174e-06
 Reference value :  5.00246e-06
 Reference value :  5.00309e-06
 Reference value :  5.00386e-06
 Reference value :  5.00482e-06
 Reference value :  5.00568e-06
 Reference value :  5.00649e-06
 Reference value :  5.00735e-06
 Reference value :  5.00814e-06
 Reference value :  5.00900e-06
 Reference value :  5.01017e-06
 Reference value :  5.01139e-06
 Reference value :  5.01384e-06
 Reference value :  5.01640e-06
 Reference value :  5.01953e-06
 Reference value :  5.02294e-06
 Reference value :  5.02644e-06
 Reference value :  5.02896e-06
 Reference value :  5.03132e-06
 Reference value :  5.03399e-06
 Reference value :  5.03662e-06
 Reference value :  5.03928e-06
 Reference value :  5.04315e-06
 Reference value :  5.04764e-06
 Reference value :  5.05405e-06
 Reference value :  5.06311e-06
 Reference value :  5.07396e-06
 Reference value :  5.08397e-06
 Reference value :  5.09362e-06
 Reference value :  5.10088e-06
 Reference value :  5.10816e-06
 Reference value :  5.11630e-06
 Reference value :  5.12524e-06
 Reference value :  5.13555e-06
 Reference value :  5.14688e-06
 Reference value :  5.15718e-06
 Reference value :  5.17776e-06
 Reference value :  5.20197e-06
 Reference value :  5.23881e-06
 Reference value :  5.25010e-06
 Reference value :  5.25011e-06
 Reference value :  5.25013e-06
 Reference value :  5.25017e-06
 Reference value :  5.25020e-06
 Reference value :  5.25020e-06
 Reference value :  5.25020e-06
 Reference value :  5.25020e-06
 Reference value :  5.25021e-06
 Reference value :  5.25022e-06
 Reference value :  5.25023e-06
 Reference value :  5.25027e-06
 Reference value :  5.25033e-06
 Reference value :  5.25042e-06
 Reference value :  5.25058e-06
 Reference value :  5.25076e-06
 Reference value :  5.25108e-06
 Reference value :  5.25172e-06
 Reference value :  5.25234e-06
 Reference value :  5.25304e-06
 Reference value :  5.25378e-06
 Reference value :  5.25473e-06
 Reference value :  5.25576e-06
 Reference value :  5.25651e-06
 Reference value :  5.25740e-06
 Reference value :  5.25835e-06
 Reference value :  5.25948e-06
 Reference value :  5.26069e-06
 Reference value :  5.26311e-06
 Reference value :  5.26621e-06
 Reference value :  5.27072e-06
 Reference value :  5.27930e-06
 Reference value :  5.29646e-06
 Reference value :  5.33077e-06
 Reference value :  5.39941e-06
 Reference value :  5.50000e-06
 Reference value :  5.50001e-06
 Reference value :  5.50003e-06
 Reference value :  5.50007e-06
 Reference value :  5.50010e-06
 Reference value :  5.50010e-06
 Reference value :  5.50010e-06
 Reference value :  5.50010e-06
 Reference value :  5.50011e-06
 Reference value :  5.50012e-06
 Reference value :  5.50013e-06
 Reference value :  5.50017e-06
 Reference value :  5.50023e-06
 Reference value :  5.50036e-06
 Reference value :  5.50062e-06
 Reference value :  5.50109e-06
 Reference value :  5.50174e-06
 Reference value :  5.50246e-06
 Reference value :  5.50308e-06
 Reference value :  5.50385e-06
 Reference value :  5.50481e-06
 Reference value :  5.50576e-06
 Reference value :  5.50670e-06
 Reference value :  5.50784e-06
 Reference value :  5.50927e-06
 Reference value :  5.51087e-06
 Reference value :  5.51235e-06
 Reference value :  5.51371e-06
 Reference value :  5.51521e-06
 Reference value :  5.51711e-06
 Reference value :  5.51883e-06
 Reference value :  5.52229e-06
 Reference value :  5.52728e-06
 Reference value :  5.53628e-06
 Reference value :  5.55427e-06
 Reference value :  5.58504e-06
 Reference value :  5.64657e-06
 Reference value :  5.75010e-06
 Reference value :  5.75011e-06
 Reference value :  5.75013e-06
 Reference value :  5.75017e-06
 Reference value :  5.75020e-06
 Reference value :  5.75020e-06
 Reference value :  5.75020e-06
 Reference value :  5.75020e-06
 Reference value :  5.75021e-06
 Reference value :  5.75022e-06
 Reference value :  5.75023e-06
 Reference value :  5.75027e-06
 Reference value :  5.75033e-06
 Reference value :  5.75041e-06
 Reference value :  5.75058e-06
 Reference value :  5.75077e-06
 Reference value :  5.75108e-06
 Reference value :  5.75170e-06
 Reference value :  5.75233e-06
 Reference value :  5.75303e-06
 Reference value :  5.75376e-06
 Reference value :  5.75470e-06
 Reference value :  5.75573e-06
 Reference value :  5.75649e-06
 Reference value :  5.75736e-06
 Reference value :  5.75836e-06
 Reference value :  5.75928e-06
 Reference value :  5.76039e-06
 Reference value :  5.76161e-06
 Reference value :  5.76313e-06
 Reference value :  5.76469e-06
 Reference value :  5.76690e-06
 Reference value :  5.76938e-06
 Reference value :  5.77360e-06
 Reference value :  5.78156e-06
 Reference value :  5.79370e-06
 Reference value :  5.81668e-06
 Reference value :  5.85503e-06
 Reference value :  5.92218e-06
 Reference value :  6.00000e-06
 Reference value :  6.00001e-06
 Reference value :  6.00003e-06
 Reference value :  6.00007e-06
 Reference value :  6.00010e-06
 Reference value :  6.00010e-06
 Reference value :  6.00010e-06
 Reference value :  6.00010e-06
 Reference value :  6.00011e-06
 Reference value :  6.00012e-06
 Reference value :  6.00013e-06
 Reference value :  6.00017e-06
 Reference value :  6.00023e-06
 Reference value :  6.00036e-06
 Reference value :  6.00062e-06
 Reference value :  6.00109e-06
 Reference value :  6.00174e-06
 Reference value :  6.00246e-06
 Reference value :  6.00309e-06
 Reference value :  6.00385e-06
 Reference value :  6.00482e-06
 Reference value :  6.00571e-06
 Reference value :  6.00666e-06
 Reference value :  6.00761e-06
 Reference value :  6.00855e-06
 Reference value :  6.00956e-06
 Reference value :  6.01080e-06
 Reference value :  6.01201e-06
 Reference value :  6.01443e-06
 Reference value :  6.01700e-06
 Reference value :  6.01890e-06
 Reference value :  6.02104e-06
 Reference value :  6.02329e-06
 Reference value :  6.02590e-06
 Reference value :  6.02798e-06
 Reference value :  6.02950e-06
 Reference value :  6.03114e-06
 Reference value :  6.03299e-06
 Reference value :  6.03440e-06
 Reference value :  6.03594e-06
 Reference value :  6.03767e-06
 Reference value :  6.03950e-06
 Reference value :  6.04310e-06
 Reference value :  6.04740e-06
 Reference value :  6.05507e-06
 Reference value :  6.06269e-06
 Reference value :  6.07794e-06
 Reference value :  6.09943e-06
 Reference value :  6.13960e-06
 Reference value :  6.21992e-06
 Reference value :  6.25010e-06
 Reference value :  6.25011e-06
 Reference value :  6.25013e-06
 Reference value :  6.25017e-06
 Reference value :  6.25020e-06
 Reference value :  6.25020e-06
 Reference value :  6.25020e-06
 Reference value :  6.25020e-06
 Reference value :  6.25021e-06
 Reference value :  6.25022e-06
 Reference value :  6.25023e-06
 Reference value :  6.25027e-06
 Reference value :  6.25033e-06
 Reference value :  6.25041e-06
 Reference value :  6.25058e-06
 Reference value :  6.25076e-06
 Reference value :  6.25106e-06
 Reference value :  6.25165e-06
 Reference value :  6.25229e-06
 Reference value :  6.25299e-06
 Reference value :  6.25371e-06
 Reference value :  6.25464e-06
 Reference value :  6.25565e-06
 Reference value :  6.25692e-06
 Reference value :  6.25794e-06
 Reference value :  6.25903e-06
 Reference value :  6.26019e-06
 Reference value :  6.26202e-06
 Reference value :  6.26374e-06
 Reference value :  6.26718e-06
 Reference value :  6.27209e-06
 Reference value :  6.28058e-06
 Reference value :  6.29665e-06
 Reference value :  6.32373e-06
 Reference value :  6.37788e-06
 Reference value :  6.48617e-06
 Reference value :  6.50000e-06
 Reference value :  6.50001e-06
 Reference value :  6.50003e-06
 Reference value :  6.50007e-06
 Reference value :  6.50010e-06
 Reference value :  6.50010e-06
 Reference value :  6.50010e-06
 Reference value :  6.50010e-06
 Reference value :  6.50011e-06
 Reference value :  6.50012e-06
 Reference value :  6.50013e-06
 Reference value :  6.50017e-06
 Reference value :  6.50023e-06
 Reference value :  6.50036e-06
 Reference value :  6.50062e-06
 Reference value :  6.50109e-06
 Reference value :  6.50174e-06
 Reference value :  6.50246e-06
 Reference value :  6.50308e-06
 Reference value :  6.50385e-06
 Reference value :  6.50480e-06
 Reference value :  6.50576e-06
 Reference value :  6.50669e-06
 Reference value :  6.50772e-06
 Reference value :  6.50880e-06
 Reference value :  6.51047e-06
 Reference value :  6.51220e-06
 Reference value :  6.51353e-06
 Reference value :  6.51509e-06
 Reference value :  6.51666e-06
 Reference value :  6.51842e-06
 Reference value :  6.52193e-06
 Reference value :  6.52607e-06
 Reference value :  6.53434e-06
 Reference value :  6.55089e-06
 Reference value :  6.58399e-06
 Reference value :  6.65019e-06
 Reference value :  6.75010e-06
 Reference value :  6.75011e-06
 Reference value :  6.75013e-06
 Reference value :  6.75017e-06
 Reference value :  6.75020e-06
 Reference value :  6.75020e-06
 Reference value :  6.75020e-06
 Reference value :  6.75020e-06
 Reference value :  6.75021e-06
 Reference value :  6.75022e-06
 Reference value :  6.75023e-06
 Reference value :  6.75027e-06
 Reference value :  6.75033e-06
 Reference value :  6.75041e-06
 Reference value :  6.75058e-06
 Reference value :  6.75080e-06
 Reference value :  6.75107e-06
 Reference value :  6.75163e-06
 Reference value :  6.75225e-06
 Reference value :  6.75292e-06
 Reference value :  6.75364e-06
 Reference value :  6.75457e-06
 Reference value :  6.75558e-06
 Reference value :  6.75681e-06
 Reference value :  6.75777e-06
 Reference value :  6.75882e-06
 Reference value :  6.75984e-06
 Reference value :  6.76092e-06
 Reference value :  6.76214e-06
 Reference value :  6.76460e-06
 Reference value :  6.76909e-06
 Reference value :  6.77586e-06
 Reference value :  6.78940e-06
 Reference value :  6.81646e-06
 Reference value :  6.87060e-06
 Reference value :  6.97888e-06
 Reference value :  7.00000e-06
 Reference value :  7.00001e-06
 Reference value :  7.00003e-06
 Reference value :  7.00007e-06
 Reference value :  7.00010e-06
 Reference value :  7.00010e-06
 Reference value :  7.00010e-06
 Reference value :  7.00010e-06
 Reference value :  7.00011e-06
 Reference value :  7.00012e-06
 Reference value :  7.00013e-06
 Reference value :  7.00017e-06
 Reference value :  7.00023e-06
 Reference value :  7.00036e-06
 Reference value :  7.00062e-06
 Reference value :  7.00109e-06
 Reference value :  7.00174e-06
 Reference value :  7.00246e-06
 Reference value :  7.00308e-06
 Reference value :  7.00385e-06
 Reference value :  7.00481e-06
 Reference value :  7.00571e-06
 Reference value :  7.00665e-06
 Reference value :  7.00742e-06
 Reference value :  7.00831e-06
 Reference value :  7.00920e-06
 Reference value :  7.01039e-06
 Reference value :  7.01181e-06
 Reference value :  7.01452e-06
 Reference value :  7.01733e-06
 Reference value :  7.02076e-06
 Reference value :  7.02368e-06
 Reference value :  7.02673e-06
 Reference value :  7.02897e-06
 Reference value :  7.03107e-06
 Reference value :  7.03302e-06
 Reference value :  7.03511e-06
 Reference value :  7.03754e-06
 Reference value :  7.04082e-06
 Reference value :  7.04518e-06
 Reference value :  7.05214e-06
 Reference value :  7.06350e-06
 Reference value :  7.07857e-06
 Reference value :  7.10473e-06
 Reference value :  7.14445e-06
 Reference value :  7.22190e-06
 Reference value :  7.25010e-06
 Reference value :  7.25011e-06
 Reference value :  7.25013e-06
 Reference value :  7.25017e-06
 Reference value :  7.25020e-06
 Reference value :  7.25020e-06
 Reference value :  7.25020e-06
 Reference value :  7.25020e-06
 Reference value :  7.25021e-06
 Reference value :  7.25022e-06
 Reference value :  7.25023e-06
 Reference value :  7.25027e-06
 Reference value :  7.25033e-06
 Reference value :  7.25042e-06
 Reference value :  7.25059e-06
 Reference value :  7.25077e-06
 Reference value :  7.25107e-06
 Reference value :  7.25167e-06
 Reference value :  7.25229e-06
 Reference value :  7.25299e-06
 Reference value :  7.25372e-06
 Reference value :  7.25465e-06
 Reference value :  7.25566e-06
 Reference value :  7.25661e-06
 Reference value :  7.25783e-06
 Reference value :  7.25894e-06
 Reference value :  7.26015e-06
 Reference value :  7.26190e-06
 Reference value :  7.26418e-06
 Reference value :  7.26813e-06
 Reference value :  7.27392e-06
 Reference value :  7.28551e-06
 Reference value :  7.30656e-06
 Reference value :  7.34867e-06
 Reference value :  7.43288e-06
 Reference value :  7.50000e-06
 Reference value :  7.50001e-06
 Reference value :  7.50003e-06
 Reference value :  7.50007e-06
 Reference value :  7.50010e-06
 Reference value :  7.50010e-06
 Reference value :  7.50010e-06
 Reference value :  7.50010e-06
 Reference value :  7.50011e-06
 Reference value :  7.50012e-06
 Reference value :  7.50013e-06
 Reference value :  7.50017e-06
 Reference value :  7.50023e-06
 Reference value :  7.50036e-06
 Reference value :  7.50062e-06
 Reference value :  7.50109e-06
 Reference value :  7.50171e-06
 Reference value :  7.50245e-06
 Reference value :  7.50308e-06
 Reference value :  7.50384e-06
 Reference value :  7.50479e-06
 Reference value :  7.50576e-06
 Reference value :  7.50668e-06
 Reference value :  7.50785e-06
 Reference value :  7.50906e-06
 Reference value :  7.51091e-06
 Reference value :  7.51292e-06
 Reference value :  7.51464e-06
 Reference value :  7.51644e-06
 Reference value :  7.51877e-06
 Reference value :  7.52117e-06
 Reference value :  7.52527e-06
 Reference value :  7.53091e-06
 Reference value :  7.54029e-06
 Reference value :  7.55642e-06
 Reference value :  7.58218e-06
 Reference value :  7.63011e-06
 Reference value :  7.71644e-06
 Reference value :  7.75010e-06
 Reference value :  7.75011e-06
 Reference value :  7.75013e-06
 Reference value :  7.75017e-06
 Reference value :  7.75020e-06
 Reference value :  7.75020e-06
 Reference value :  7.75020e-06
 Reference value :  7.75020e-06
 Reference value :  7.75021e-06
 Reference value :  7.75022e-06
 Reference value :  7.75023e-06
 Reference value :  7.75027e-06
 Reference value :  7.75033e-06
 Reference value :  7.75042e-06
 Reference value :  7.75059e-06
 Reference value :  7.75082e-06
 Reference value :  7.75109e-06
 Reference value :  7.75165e-06
 Reference value :  7.75226e-06
 Reference value :  7.75292e-06
 Reference value :  7.75365e-06
 Reference value :  7.75457e-06
 Reference value :  7.75558e-06
 Reference value :  7.75656e-06
 Reference value :  7.75762e-06
 Reference value :  7.75857e-06
 Reference value :  7.75956e-06
 Reference value :  7.76063e-06
 Reference value :  7.76188e-06
 Reference value :  7.76436e-06
 Reference value :  7.76852e-06
 Reference value :  7.77494e-06
 Reference value :  7.78779e-06
 Reference value :  7.81349e-06
 Reference value :  7.86488e-06
 Reference value :  7.96768e-06
 Reference value :  8.00000e-06
 Reference value :  8.00001e-06
 Reference value :  8.00003e-06
 Reference value :  8.00007e-06
 Reference value :  8.00010e-06
 Reference value :  8.00010e-06
 Reference value :  8.00010e-06
 Reference value :  8.00010e-06
 Reference value :  8.00011e-06
 Reference value :  8.00012e-06
 Reference value :  8.00013e-06
 Reference value :  8.00017e-06
 Reference value :  8.00023e-06
 Reference value :  8.00036e-06
 Reference value :  8.00062e-06
 Reference value :  8.00109e-06
 Reference value :  8.00171e-06
 Reference value :  8.00245e-06
 Reference value :  8.00308e-06
 Reference value :  8.00385e-06
 Reference value :  8.00482e-06
 Reference value :  8.00575e-06
 Reference value :  8.00670e-06
 Reference value :  8.00757e-06
 Reference value :  8.00851e-06
 Reference value :  8.00955e-06
 Reference value :  8.01070e-06
 Reference value :  8.01243e-06
 Reference value :  8.01396e-06
 Reference value :  8.01557e-06
 Reference value :  8.01723e-06
 Reference value :  8.01904e-06
 Reference value :  8.02267e-06
 Reference value :  8.02810e-06
 Reference value :  8.03696e-06
 Reference value :  8.05466e-06
 Reference value :  8.09008e-06
 Reference value :  8.16090e-06
 Reference value :  8.25010e-06
 Reference value :  8.25011e-06
 Reference value :  8.25013e-06
 Reference value :  8.25017e-06
 Reference value :  8.25020e-06
 Reference value :  8.25020e-06
 Reference value :  8.25020e-06
 Reference value :  8.25020e-06
 Reference value :  8.25021e-06
 Reference value :  8.25022e-06
 Reference value :  8.25023e-06
 Reference value :  8.25027e-06
 Reference value :  8.25033e-06
 Reference value :  8.25047e-06
 Reference value :  8.25064e-06
 Reference value :  8.25085e-06
 Reference value :  8.25127e-06
 Reference value :  8.25193e-06
 Reference value :  8.25261e-06
 Reference value :  8.25331e-06
 Reference value :  8.25422e-06
 Reference value :  8.25545e-06
 Reference value :  8.25660e-06
 Reference value :  8.25789e-06
 Reference value :  8.25953e-06
 Reference value :  8.26158e-06
 Reference value :  8.26424e-06
 Reference value :  8.26765e-06
 Reference value :  8.27257e-06
 Reference value :  8.28243e-06
 Reference value :  8.29636e-06
 Reference value :  8.32423e-06
 Reference value :  8.37995e-06
 Reference value :  8.48536e-06
 Reference value :  8.50000e-06
 Reference value :  8.50001e-06
 Reference value :  8.50003e-06
 Reference value :  8.50007e-06
 Reference value :  8.50010e-06
 Reference value :  8.50010e-06
 Reference value :  8.50010e-06
 Reference value :  8.50010e-06
 Reference value :  8.50011e-06
 Reference value :  8.50012e-06
 Reference value :  8.50013e-06
 Reference value :  8.50017e-06
 Reference value :  8.50023e-06
 Reference value :  8.50036e-06
 Reference value :  8.50062e-06
 Reference value :  8.50107e-06
 Reference value :  8.50173e-06
 Reference value :  8.50252e-06
 Reference value :  8.50322e-06
 Reference value :  8.50397e-06
 Reference value :  8.50474e-06
 Reference value :  8.50560e-06
 Reference value :  8.50654e-06
 Reference value :  8.50786e-06
 Reference value :  8.50877e-06
 Reference value :  8.50982e-06
 Reference value :  8.51109e-06
 Reference value :  8.51246e-06
 Reference value :  8.51519e-06
 Reference value :  8.51832e-06
 Reference value :  8.52458e-06
 Reference value :  8.53634e-06
 Reference value :  8.53765e-06
 Reference value :  8.54028e-06
 Reference value :  8.54552e-06
 Reference value :  8.55027e-06
 Reference value :  8.55415e-06
 Reference value :  8.55735e-06
 Reference value :  8.56041e-06
 Reference value :  8.56356e-06
 Reference value :  8.56573e-06
 Reference value :  8.56763e-06
 Reference value :  8.56934e-06
 Reference value :  8.57075e-06
 Reference value :  8.57210e-06
 Reference value :  8.57354e-06
 Reference value :  8.57514e-06
 Reference value :  8.57713e-06
 Reference value :  8.57961e-06
 Reference value :  8.58229e-06
 Reference value :  8.58586e-06
 Reference value :  8.59083e-06
 Reference value :  8.59701e-06
 Reference value :  8.60504e-06
 Reference value :  8.61335e-06
 Reference value :  8.62618e-06
 Reference value :  8.63784e-06
 Reference value :  8.65718e-06
 Reference value :  8.68119e-06
 Reference value :  8.71419e-06
 Reference value :  8.75010e-06
 Reference value :  8.75011e-06
 Reference value :  8.75013e-06
 Reference value :  8.75017e-06
 Reference value :  8.75020e-06
 Reference value :  8.75020e-06
 Reference value :  8.75020e-06
 Reference value :  8.75020e-06
 Reference value :  8.75021e-06
 Reference value :  8.75022e-06
 Reference value :  8.75023e-06
 Reference value :  8.75027e-06
 Reference value :  8.75033e-06
 Reference value :  8.75047e-06
 Reference value :  8.75064e-06
 Reference value :  8.75091e-06
 Reference value :  8.75145e-06
 Reference value :  8.75211e-06
 Reference value :  8.75281e-06
 Reference value :  8.75354e-06
 Reference value :  8.75447e-06
 Reference value :  8.75552e-06
 Reference value :  8.75660e-06
 Reference value :  8.75765e-06
 Reference value :  8.75876e-06
 Reference value :  8.76009e-06
 Reference value :  8.76143e-06
 Reference value :  8.76295e-06
 Reference value :  8.76599e-06
 Reference value :  8.77011e-06
 Reference value :  8.77478e-06
 Reference value :  8.78114e-06
 Reference value :  8.78737e-06
 Reference value :  8.79161e-06
 Reference value :  8.79661e-06
 Reference value :  8.80198e-06
 Reference value :  8.80873e-06
 Reference value :  8.81582e-06
 Reference value :  8.82221e-06
 Reference value :  8.83003e-06
 Reference value :  8.84500e-06
 Reference value :  8.86200e-06
 Reference value :  8.89152e-06
 Reference value :  8.94084e-06
 Reference value :  9.00000e-06
 Reference value :  9.00001e-06
 Reference value :  9.00003e-06
 Reference value :  9.00007e-06
 Reference value :  9.00010e-06
 Reference value :  9.00010e-06
 Reference value :  9.00010e-06
 Reference value :  9.00010e-06
 Reference value :  9.00011e-06
 Reference value :  9.00012e-06
 Reference value :  9.00013e-06
 Reference value :  9.00017e-06
 Reference value :  9.00023e-06
 Reference value :  9.00036e-06
 Reference value :  9.00056e-06
 Reference value :  9.00096e-06
 Reference value :  9.00147e-06
 Reference value :  9.00200e-06
 Reference value :  9.00276e-06
 Reference value :  9.00357e-06
 Reference value :  9.00432e-06
 Reference value :  9.00513e-06
 Reference value :  9.00613e-06
 Reference value :  9.00715e-06
 Reference value :  9.00835e-06
 Reference value :  9.00971e-06
 Reference value :  9.01142e-06
 Reference value :  9.01346e-06
 Reference value :  9.01534e-06
 Reference value :  9.01718e-06
 Reference value :  9.02000e-06
 Reference value :  9.02277e-06
 Reference value :  9.02603e-06
 Reference value :  9.02909e-06
 Reference value :  9.03222e-06
 Reference value :  9.03614e-06
 Reference value :  9.04137e-06
 Reference value :  9.04793e-06
 Reference value :  9.05508e-06
 Reference value :  9.06673e-06
 Reference value :  9.08849e-06
 Reference value :  9.12040e-06
 Reference value :  9.17911e-06
 Reference value :  9.25010e-06
 Reference value :  9.25011e-06
 Reference value :  9.25013e-06
 Reference value :  9.25017e-06
 Reference value :  9.25020e-06
 Reference value :  9.25020e-06
 Reference value :  9.25020e-06
 Reference value :  9.25020e-06
 Reference value :  9.25021e-06
 Reference value :  9.25022e-06
 Reference value :  9.25023e-06
 Reference value :  9.25027e-06
 Reference value :  9.25033e-06
 Reference value :  9.25047e-06
 Reference value :  9.25064e-06
 Reference value :  9.25091e-06
 Reference value :  9.25145e-06
 Reference value :  9.25210e-06
 Reference value :  9.25280e-06
 Reference value :  9.25353e-06
 Reference value :  9.25443e-06
 Reference value :  9.25552e-06
 Reference value :  9.25665e-06
 Reference value :  9.25768e-06
 Reference value :  9.25877e-06
 Reference value :  9.25975e-06
 Reference value :  9.26079e-06
 Reference value :  9.26196e-06
 Reference value :  9.26322e-06
 Reference value :  9.26483e-06
 Reference value :  9.26648e-06
 Reference value :  9.26931e-06
 Reference value :  9.27201e-06
 Reference value :  9.27684e-06
 Reference value :  9.28513e-06
 Reference value :  9.29678e-06
 Reference value :  9.31815e-06
 Reference value :  9.35052e-06
 Reference value :  9.40455e-06
 Reference value :  9.49331e-06
 Reference value :  9.50000e-06
 Reference value :  9.50001e-06
 Reference value :  9.50003e-06
 Reference value :  9.50007e-06
 Reference value :  9.50010e-06
 Reference value :  9.50010e-06
 Reference value :  9.50010e-06
 Reference value :  9.50010e-06
 Reference value :  9.50011e-06
 Reference value :  9.50012e-06
 Reference value :  9.50013e-06
 Reference value :  9.50017e-06
 Reference value :  9.50023e-06
 Reference value :  9.50036e-06
 Reference value :  9.50056e-06
 Reference value :  9.50096e-06
 Reference value :  9.50147e-06
 Reference value :  9.50201e-06
 Reference value :  9.50276e-06
 Reference value :  9.50346e-06
 Reference value :  9.50420e-06
 Reference value :  9.50499e-06
 Reference value :  9.50587e-06
 Reference value :  9.50691e-06
 Reference value :  9.50768e-06
 Reference value :  9.50855e-06
 Reference value :  9.50939e-06
 Reference value :  9.51026e-06
 Reference value :  9.51144e-06
 Reference value :  9.51269e-06
 Reference value :  9.51520e-06
 Reference value :  9.51755e-06
 Reference value :  9.51941e-06
 Reference value :  9.52149e-06
 Reference value :  9.52429e-06
 Reference value :  9.52653e-06
 Reference value :  9.52857e-06
 Reference value :  9.53009e-06
 Reference value :  9.53150e-06
 Reference value :  9.53303e-06
 Reference value :  9.53460e-06
 Reference value :  9.53636e-06
 Reference value :  9.53914e-06
 Reference value :  9.54204e-06
 Reference value :  9.54783e-06
 Reference value :  9.55642e-06
 Reference value :  9.57070e-06
 Reference value :  9.59720e-06
 Reference value :  9.64233e-06
 Reference value :  9.72072e-06
 Reference value :  9.75010e-06
 Reference value :  9.75011e-06
 Reference value :  9.75013e-06
 Reference value :  9.75017e-06
 Reference value :  9.75020e-06
 Reference value :  9.75020e-06
 Reference value :  9.75020e-06
 Reference value :  9.75020e-06
 Reference value :  9.75021e-06
 Reference value :  9.75022e-06
 Reference value :  9.75023e-06
 Reference value :  9.75027e-06
 Reference value :  9.75033e-06
 Reference value :  9.75047e-06
 Reference value :  9.75064e-06
 Reference value :  9.75091e-06
 Reference value :  9.75145e-06
 Reference value :  9.75210e-06
 Reference value :  9.75288e-06
 Reference value :  9.75358e-06
 Reference value :  9.75455e-06
 Reference value :  9.75561e-06
 Reference value :  9.75652e-06
 Reference value :  9.75760e-06
 Reference value :  9.75871e-06
 Reference value :  9.75986e-06
 Reference value :  9.76136e-06
 Reference value :  9.76388e-06
 Reference value :  9.76733e-06
 Reference value :  9.77243e-06
 Reference value :  9.78262e-06
 Reference value :  9.79798e-06
 Reference value :  9.82676e-06
 Reference value :  9.88431e-06
 Reference value :  9.99941e-06
 Reference value :  1.00000e-05
 Reference value :  1.00000e-05
 Reference value :  1.00000e-05
 Reference value :  1.00001e-05
 Reference value :  1.00001e-05
 Reference value :  1.00001e-05
 Reference value :  1.00001e-05
 Reference value :  1.00001e-05
 Reference value :  1.00001e-05
 Reference value :  1.00001e-05
 Reference value :  1.00001e-05
 Reference value :  1.00002e-05
 Reference value :  1.00003e-05
 Reference value :  1.00004e-05
 Reference value :  1.00007e-05
 Reference value :  1.00012e-05
 Reference value :  1.00018e-05
 Reference value :  1.00025e-05
 Reference value :  1.00032e-05
 Reference value :  1.00039e-05
 Reference value :  1.00048e-05
 Reference value :  1.00058e-05
 Reference value :  1.00067e-05
 Reference value :  1.00077e-05
 Reference value :  1.00091e-05
 Reference value :  1.00107e-05
 Reference value :  1.00129e-05
 Reference value :  1.00144e-05
 Reference value :  1.00161e-05
 Reference value :  1.00181e-05
 Reference value :  1.00201e-05
 Reference value :  1.00237e-05
 Reference value :  1.00287e-05
 Reference value :  1.00373e-05
 Reference value :  1.00521e-05
 Reference value :  1.00768e-05
 Reference value :  1.01213e-05
 Reference value :  1.01980e-05
 Reference value :  1.02501e-05
 Reference value :  1.02501e-05
 Reference value :  1.02501e-05
 Reference value :  1.02502e-05
 Reference value :  1.02502e-05
 Reference value :  1.02502e-05
 Reference value :  1.02502e-05
 Reference value :  1.02502e-05
 Reference value :  1.02502e-05
 Reference value :  1.02502e-05
 Reference value :  1.02502e-05
 Reference value :  1.02503e-05
 Reference value :  1.02503e-05
 Reference value :  1.02505e-05
 Reference value :  1.02506e-05
 Reference value :  1.02509e-05
 Reference value :  1.02515e-05
 Reference value :  1.02521e-05
 Reference value :  1.02529e-05
 Reference value :  1.02536e-05
 Reference value :  1.02546e-05
 Reference value :  1.02556e-05
 Reference value :  1.02565e-05
 Reference value :  1.02576e-05
 Reference value :  1.02585e-05
 Reference value :  1.02595e-05
 Reference value :  1.02606e-05
 Reference value :  1.02619e-05
 Reference value :  1.02633e-05
 Reference value :  1.02649e-05
 Reference value :  1.02673e-05
 Reference value :  1.02699e-05
 Reference value :  1.02743e-05
 Reference value :  1.02829e-05
 Reference value :  1.02959e-05
 Reference value :  1.03212e-05
 Reference value :  1.03640e-05
 Reference value :  1.04396e-05
 Reference value :  1.05000e-05
 Reference value :  1.05000e-05
 Reference value :  1.05000e-05
 Reference value :  1.05001e-05
 Reference value :  1.05001e-05
 Reference value :  1.05001e-05
 Reference value :  1.05001e-05
 Reference value :  1.05001e-05
 Reference value :  1.05001e-05
 Reference value :  1.05001e-05
 Reference value :  1.05001e-05
 Reference value :  1.05002e-05
 Reference value :  1.05002e-05
 Reference value :  1.05004e-05
 Reference value :  1.05006e-05
 Reference value :  1.05010e-05
 Reference value :  1.05015e-05
 Reference value :  1.05020e-05
 Reference value :  1.05027e-05
 Reference value :  1.05034e-05
 Reference value :  1.05042e-05
 Reference value :  1.05050e-05
 Reference value :  1.05059e-05
 Reference value :  1.05066e-05
 Reference value :  1.05075e-05
 Reference value :  1.05082e-05
 Reference value :  1.05090e-05
 Reference value :  1.05101e-05
 Reference value :  1.05112e-05
 Reference value :  1.05132e-05
 Reference value :  1.05154e-05
 Reference value :  1.05176e-05
 Reference value :  1.05198e-05
 Reference value :  1.05219e-05
 Reference value :  1.05242e-05
 Reference value :  1.05260e-05
 Reference value :  1.05274e-05
 Reference value :  1.05289e-05
 Reference value :  1.05306e-05
 Reference value :  1.05323e-05
 Reference value :  1.05343e-05
 Reference value :  1.05374e-05
 Reference value :  1.05407e-05
 Reference value :  1.05474e-05
 Reference value :  1.05568e-05
 Reference value :  1.05736e-05
 Reference value :  1.05945e-05
 Reference value :  1.06214e-05
 Reference value :  1.06469e-05
 Reference value :  1.06706e-05
 Reference value :  1.06861e-05
 Reference value :  1.07009e-05
 Reference value :  1.07201e-05
 Reference value :  1.07393e-05
 Reference value :  1.07501e-05
 Reference value :  1.07501e-05
 Reference value :  1.07501e-05
 Reference value :  1.07502e-05
 Reference value :  1.07502e-05
 Reference value :  1.07502e-05
 Reference value :  1.07502e-05
 Reference value :  1.07502e-05
 Reference value :  1.07502e-05
 Reference value :  1.07502e-05
 Reference value :  1.07502e-05
 Reference value :  1.07503e-05
 Reference value :  1.07503e-05
 Reference value :  1.07505e-05
 Reference value :  1.07506e-05
 Reference value :  1.07509e-05
 Reference value :  1.07515e-05
 Reference value :  1.07521e-05
 Reference value :  1.07529e-05
 Reference value :  1.07536e-05
 Reference value :  1.07545e-05
 Reference value :  1.07556e-05
 Reference value :  1.07566e-05
 Reference value :  1.07577e-05
 Reference value :  1.07588e-05
 Reference value :  1.07604e-05
 Reference value :  1.07624e-05
 Reference value :  1.07650e-05
 Reference value :  1.07689e-05
 Reference value :  1.07756e-05
 Reference value :  1.07862e-05
 Reference value :  1.08039e-05
 Reference value :  1.08392e-05
 Reference value :  1.09027e-05
 Reference value :  1.09625e-05
 Reference value :  1.10000e-05
 Reference value :  1.10000e-05
 Reference value :  1.10000e-05
 Reference value :  1.10001e-05
 Reference value :  1.10001e-05
 Reference value :  1.10001e-05
 Reference value :  1.10001e-05
 Reference value :  1.10001e-05
 Reference value :  1.10001e-05
 Reference value :  1.10001e-05
 Reference value :  1.10001e-05
 Reference value :  1.10002e-05
 Reference value :  1.10002e-05
 Reference value :  1.10004e-05
 Reference value :  1.10005e-05
 Reference value :  1.10009e-05
 Reference value :  1.10014e-05
 Reference value :  1.10019e-05
 Reference value :  1.10027e-05
 Reference value :  1.10034e-05
 Reference value :  1.10041e-05
 Reference value :  1.10049e-05
 Reference value :  1.10057e-05
 Reference value :  1.10067e-05
 Reference value :  1.10079e-05
 Reference value :  1.10095e-05
 Reference value :  1.10117e-05
 Reference value :  1.10132e-05
 Reference value :  1.10148e-05
 Reference value :  1.10165e-05
 Reference value :  1.10188e-05
 Reference value :  1.10213e-05
 Reference value :  1.10254e-05
 Reference value :  1.10313e-05
 Reference value :  1.10408e-05
 Reference value :  1.10586e-05
 Reference value :  1.10877e-05
 Reference value :  1.11400e-05
 Reference value :  1.12308e-05
 Reference value :  1.12501e-05
 Reference value :  1.12501e-05
 Reference value :  1.12501e-05
 Reference value :  1.12502e-05
 Reference value :  1.12502e-05
 Reference value :  1.12502e-05
 Reference value :  1.12502e-05
 Reference value :  1.12502e-05
 Reference value :  1.12502e-05
 Reference value :  1.12502e-05
 Reference value :  1.12502e-05
 Reference value :  1.12503e-05
 Reference value :  1.12503e-05
 Reference value :  1.12505e-05
 Reference value :  1.12506e-05
 Reference value :  1.12509e-05
 Reference value :  1.12515e-05
 Reference value :  1.12521e-05
 Reference value :  1.12529e-05
 Reference value :  1.12536e-05
 Reference value :  1.12545e-05
 Reference value :  1.12556e-05
 Reference value :  1.12566e-05
 Reference value :  1.12575e-05
 Reference value :  1.12584e-05
 Reference value :  1.12596e-05
 Reference value :  1.12608e-05
 Reference value :  1.12633e-05
 Reference value :  1.12664e-05
 Reference value :  1.12711e-05
 Reference value :  1.12794e-05
 Reference value :  1.12941e-05
 Reference value :  1.13188e-05
 Reference value :  1.13681e-05
 Reference value :  1.14669e-05
 Reference value :  1.15000e-05
 Reference value :  1.15000e-05
 Reference value :  1.15000e-05
 Reference value :  1.15001e-05
 Reference value :  1.15001e-05
 Reference value :  1.15001e-05
 Reference value :  1.15001e-05
 Reference value :  1.15001e-05
 Reference value :  1.15001e-05
 Reference value :  1.15001e-05
 Reference value :  1.15001e-05
 Reference value :  1.15002e-05
 Reference value :  1.15002e-05
 Reference value :  1.15004e-05
 Reference value :  1.15005e-05
 Reference value :  1.15009e-05
 Reference value :  1.15014e-05
 Reference value :  1.15019e-05
 Reference value :  1.15027e-05
 Reference value :  1.15034e-05
 Reference value :  1.15041e-05
 Reference value :  1.15049e-05
 Reference value :  1.15057e-05
 Reference value :  1.15067e-05
 Reference value :  1.15076e-05
 Reference value :  1.15084e-05
 Reference value :  1.15093e-05
 Reference value :  1.15105e-05
 Reference value :  1.15117e-05
 Reference value :  1.15140e-05
 Reference value :  1.15162e-05
 Reference value :  1.15190e-05
 Reference value :  1.15213e-05
 Reference value :  1.15234e-05
 Reference value :  1.15248e-05
 Reference value :  1.15263e-05
 Reference value :  1.15279e-05
 Reference value :  1.15295e-05
 Reference value :  1.15313e-05
 Reference value :  1.15341e-05
 Reference value :  1.15370e-05
 Reference value :  1.15429e-05
 Reference value :  1.15512e-05
 Reference value :  1.15652e-05
 Reference value :  1.15805e-05
 Reference value :  1.15944e-05
 Reference value :  1.16045e-05
 Reference value :  1.16157e-05
 Reference value :  1.16225e-05
 Reference value :  1.16310e-05
 Reference value :  1.16385e-05
 Reference value :  1.16467e-05
 Reference value :  1.16603e-05
 Reference value :  1.16765e-05
 Reference value :  1.17046e-05
 Reference value :  1.17501e-05
 Reference value :  1.17501e-05
 Reference value :  1.17501e-05
 Reference value :  1.17502e-05
 Reference value :  1.17502e-05
 Reference value :  1.17502e-05
 Reference value :  1.17502e-05
 Reference value :  1.17502e-05
 Reference value :  1.17502e-05
 Reference value :  1.17502e-05
 Reference value :  1.17502e-05
 Reference value :  1.17503e-05
 Reference value :  1.17503e-05
 Reference value :  1.17505e-05
 Reference value :  1.17506e-05
 Reference value :  1.17509e-05
 Reference value :  1.17515e-05
 Reference value :  1.17521e-05
 Reference value :  1.17529e-05
 Reference value :  1.17536e-05
 Reference value :  1.17545e-05
 Reference value :  1.17556e-05
 Reference value :  1.17566e-05
 Reference value :  1.17576e-05
 Reference value :  1.17586e-05
 Reference value :  1.17604e-05
 Reference value :  1.17620e-05
 Reference value :  1.17648e-05
 Reference value :  1.17683e-05
 Reference value :  1.17752e-05
 Reference value :  1.17860e-05
 Reference value :  1.18040e-05
 Reference value :  1.18400e-05
 Reference value :  1.19068e-05
 Reference value :  1.20000e-05
 Reference value :  1.20000e-05
 Reference value :  1.20000e-05
 Reference value :  1.20001e-05
 Reference value :  1.20001e-05
 Reference value :  1.20001e-05
 Reference value :  1.20001e-05
 Reference value :  1.20001e-05
 Reference value :  1.20001e-05
 Reference value :  1.20001e-05
 Reference value :  1.20001e-05
 Reference value :  1.20002e-05
 Reference value :  1.20002e-05
 Reference value :  1.20004e-05
 Reference value :  1.20005e-05
 Reference value :  1.20009e-05
 Reference value :  1.20014e-05
 Reference value :  1.20019e-05
 Reference value :  1.20027e-05
 Reference value :  1.20034e-05
 Reference value :  1.20041e-05
 Reference value :  1.20049e-05
 Reference value :  1.20058e-05
 Reference value :  1.20068e-05
 Reference value :  1.20080e-05
 Reference value :  1.20096e-05
 Reference value :  1.20111e-05
 Reference value :  1.20127e-05
 Reference value :  1.20143e-05
 Reference value :  1.20159e-05
 Reference value :  1.20176e-05
 Reference value :  1.20199e-05
 Reference value :  1.20223e-05
 Reference value :  1.20266e-05
 Reference value :  1.20328e-05
 Reference value :  1.20435e-05
 Reference value :  1.20627e-05
 Reference value :  1.20956e-05
 Reference value :  1.21571e-05
 Reference value :  1.22501e-05
 Reference value :  1.22501e-05
 Reference value :  1.22501e-05
 Reference value :  1.22502e-05
 Reference value :  1.22502e-05
 Reference value :  1.22502e-05
 Reference value :  1.22502e-05
 Reference value :  1.22502e-05
 Reference value :  1.22502e-05
 Reference value :  1.22502e-05
 Reference value :  1.22502e-05
 Reference value :  1.22503e-05
 Reference value :  1.22503e-05
 Reference value :  1.22505e-05
 Reference value :  1.22506e-05
 Reference value :  1.22509e-05
 Reference value :  1.22515e-05
 Reference value :  1.22521e-05
 Reference value :  1.22529e-05
 Reference value :  1.22536e-05
 Reference value :  1.22545e-05
 Reference value :  1.22556e-05
 Reference value :  1.22565e-05
 Reference value :  1.22575e-05
 Reference value :  1.22584e-05
 Reference value :  1.22595e-05
 Reference value :  1.22606e-05
 Reference value :  1.22620e-05
 Reference value :  1.22635e-05
 Reference value :  1.22660e-05
 Reference value :  1.22685e-05
 Reference value :  1.22722e-05
 Reference value :  1.22774e-05
 Reference value :  1.22878e-05
 Reference value :  1.23086e-05
 Reference value :  1.23501e-05
 Reference value :  1.24332e-05
 Reference value :  1.25000e-05
 Reference value :  1.25000e-05
 Reference value :  1.25000e-05
 Reference value :  1.25001e-05
 Reference value :  1.25001e-05
 Reference value :  1.25001e-05
 Reference value :  1.25001e-05
 Reference value :  1.25001e-05
 Reference value :  1.25001e-05
 Reference value :  1.25001e-05
 Reference value :  1.25001e-05
 Reference value :  1.25002e-05
 Reference value :  1.25002e-05
 Reference value :  1.25004e-05
 Reference value :  1.25005e-05
 Reference value :  1.25009e-05
 Reference value :  1.25014e-05
 Reference value :  1.25019e-05
 Reference value :  1.25027e-05
 Reference value :  1.25034e-05
 Reference value :  1.25041e-05
 Reference value :  1.25049e-05
 Reference value :  1.25057e-05
 Reference value :  1.25065e-05
 Reference value :  1.25073e-05
 Reference value :  1.25080e-05
 Reference value :  1.25089e-05
 Reference value :  1.25097e-05
 Reference value :  1.25109e-05
 Reference value :  1.25121e-05
 Reference value :  1.25142e-05
 Reference value :  1.25164e-05
 Reference value :  1.25181e-05
 Reference value :  1.25200e-05
 Reference value :  1.25225e-05
 Reference value :  1.25248e-05
 Reference value :  1.25265e-05
 Reference value :  1.25281e-05
 Reference value :  1.25299e-05
 Reference value :  1.25318e-05
 Reference value :  1.25340e-05
 Reference value :  1.25370e-05
 Reference value :  1.25410e-05
 Reference value :  1.25452e-05
 Reference value :  1.25499e-05
 Reference value :  1.25546e-05
 Reference value :  1.25581e-05
 Reference value :  1.25613e-05
 Reference value :  1.25649e-05
 Reference value :  1.25683e-05
 Reference value :  1.25739e-05
 Reference value :  1.25799e-05
 Reference value :  1.25885e-05
 Reference value :  1.26018e-05
 Reference value :  1.26149e-05
 Reference value :  1.26368e-05
 Reference value :  1.26633e-05
 Reference value :  1.27026e-05
 Reference value :  1.27501e-05
 Reference value :  1.27501e-05
 Reference value :  1.27501e-05
 Reference value :  1.27502e-05
 Reference value :  1.27502e-05
 Reference value :  1.27502e-05
 Reference value :  1.27502e-05
 Reference value :  1.27502e-05
 Reference value :  1.27502e-05
 Reference value :  1.27502e-05
 Reference value :  1.27502e-05
 Reference value :  1.27503e-05
 Reference value :  1.27503e-05
 Reference value :  1.27504e-05
 Reference value :  1.27506e-05
 Reference value :  1.27508e-05
 Reference value :  1.27511e-05
 Reference value :  1.27517e-05
 Reference value :  1.27523e-05
 Reference value :  1.27530e-05
 Reference value :  1.27538e-05
 Reference value :  1.27547e-05
 Reference value :  1.27556e-05
 Reference value :  1.27565e-05
 Reference value :  1.27575e-05
 Reference value :  1.27584e-05
 Reference value :  1.27600e-05
 Reference value :  1.27616e-05
 Reference value :  1.27642e-05
 Reference value :  1.27677e-05
 Reference value :  1.27733e-05
 Reference value :  1.27844e-05
 Reference value :  1.28067e-05
 Reference value :  1.28512e-05
 Reference value :  1.29402e-05
 Reference value :  1.30000e-05
 Reference value :  1.30000e-05
 Reference value :  1.30000e-05
 Reference value :  1.30001e-05
 Reference value :  1.30001e-05
 Reference value :  1.30001e-05
 Reference value :  1.30001e-05
 Reference value :  1.30001e-05
 Reference value :  1.30001e-05
 Reference value :  1.30001e-05
 Reference value :  1.30001e-05
 Reference value :  1.30002e-05
 Reference value :  1.30002e-05
 Reference value :  1.30004e-05
 Reference value :  1.30006e-05
 Reference value :  1.30011e-05
 Reference value :  1.30017e-05
 Reference value :  1.30025e-05
 Reference value :  1.30031e-05
 Reference value :  1.30039e-05
 Reference value :  1.30047e-05
 Reference value :  1.30056e-05
 Reference value :  1.30065e-05
 Reference value :  1.30075e-05
 Reference value :  1.30088e-05
 Reference value :  1.30104e-05
 Reference value :  1.30116e-05
 Reference value :  1.30130e-05
 Reference value :  1.30145e-05
 Reference value :  1.30162e-05
 Reference value :  1.30179e-05
 Reference value :  1.30213e-05
 Reference value :  1.30281e-05
 Reference value :  1.30416e-05
 Reference value :  1.30687e-05
 Reference value :  1.31228e-05
 Reference value :  1.32310e-05
 Reference value :  1.32501e-05
 Reference value :  1.32501e-05
 Reference value :  1.32501e-05
 Reference value :  1.32502e-05
 Reference value :  1.32502e-05
 Reference value :  1.32502e-05
 Reference value :  1.32502e-05
 Reference value :  1.32502e-05
 Reference value :  1.32502e-05
 Reference value :  1.32502e-05
 Reference value :  1.32502e-05
 Reference value :  1.32503e-05
 Reference value :  1.32503e-05
 Reference value :  1.32504e-05
 Reference value :  1.32506e-05
 Reference value :  1.32508e-05
 Reference value :  1.32511e-05
 Reference value :  1.32517e-05
 Reference value :  1.32523e-05
 Reference value :  1.32530e-05
 Reference value :  1.32538e-05
 Reference value :  1.32547e-05
 Reference value :  1.32555e-05
 Reference value :  1.32565e-05
 Reference value :  1.32573e-05
 Reference value :  1.32582e-05
 Reference value :  1.32592e-05
 Reference value :  1.32604e-05
 Reference value :  1.32627e-05
 Reference value :  1.32656e-05
 Reference value :  1.32699e-05
 Reference value :  1.32770e-05
 Reference value :  1.32913e-05
 Reference value :  1.33199e-05
 Reference value :  1.33771e-05
 Reference value :  1.34915e-05
 Reference value :  1.35000e-05
 Reference value :  1.35000e-05
 Reference value :  1.35000e-05
 Reference value :  1.35001e-05
 Reference value :  1.35001e-05
 Reference value :  1.35001e-05
 Reference value :  1.35001e-05
 Reference value :  1.35001e-05
 Reference value :  1.35001e-05
 Reference value :  1.35001e-05
 Reference value :  1.35001e-05
 Reference value :  1.35002e-05
 Reference value :  1.35002e-05
 Reference value :  1.35004e-05
 Reference value :  1.35006e-05
 Reference value :  1.35011e-05
 Reference value :  1.35017e-05
 Reference value :  1.35025e-05
 Reference value :  1.35031e-05
 Reference value :  1.35039e-05
 Reference value :  1.35048e-05
 Reference value :  1.35057e-05
 Reference value :  1.35065e-05
 Reference value :  1.35073e-05
 Reference value :  1.35081e-05
 Reference value :  1.35090e-05
 Reference value :  1.35102e-05
 Reference value :  1.35114e-05
 Reference value :  1.35138e-05
 Reference value :  1.35164e-05
 Reference value :  1.35195e-05
 Reference value :  1.35229e-05
 Reference value :  1.35264e-05
 Reference value :  1.35290e-05
 Reference value :  1.35313e-05
 Reference value :  1.35340e-05
 Reference value :  1.35366e-05
 Reference value :  1.35393e-05
 Reference value :  1.35431e-05
 Reference value :  1.35476e-05
 Reference value :  1.35539e-05
 Reference value :  1.35629e-05
 Reference value :  1.35756e-05
 Reference value :  1.35872e-05
 Reference value :  1.36039e-05
 Reference value :  1.36230e-05
 Reference value :  1.36489e-05
 Reference value :  1.36739e-05
 Reference value :  1.37025e-05
 Reference value :  1.37501e-05
 Reference value :  1.37501e-05
 Reference value :  1.37501e-05
 Reference value :  1.37502e-05
 Reference value :  1.37502e-05
 Reference value :  1.37502e-05
 Reference value :  1.37502e-05
 Reference value :  1.37502e-05
 Reference value :  1.37502e-05
 Reference value :  1.37502e-05
 Reference value :  1.37502e-05
 Reference value :  1.37503e-05
 Reference value :  1.37503e-05
 Reference value :  1.37504e-05
 Reference value :  1.37506e-05
 Reference value :  1.37508e-05
 Reference value :  1.37511e-05
 Reference value :  1.37517e-05
 Reference value :  1.37523e-05
 Reference value :  1.37530e-05
 Reference value :  1.37538e-05
 Reference value :  1.37547e-05
 Reference value :  1.37558e-05
 Reference value :  1.37565e-05
 Reference value :  1.37574e-05
 Reference value :  1.37584e-05
 Reference value :  1.37595e-05
 Reference value :  1.37607e-05
 Reference value :  1.37631e-05
 Reference value :  1.37662e-05
 Reference value :  1.37708e-05
 Reference value :  1.37795e-05
 Reference value :  1.37968e-05
 Reference value :  1.38315e-05
 Reference value :  1.39010e-05
 Reference value :  1.40000e-05
 Reference value :  1.40000e-05
 Reference value :  1.40000e-05
 Reference value :  1.40001e-05
 Reference value :  1.40001e-05
 Reference value :  1.40001e-05
 Reference value :  1.40001e-05
 Reference value :  1.40001e-05
 Reference value :  1.40001e-05
 Reference value :  1.40001e-05
 Reference value :  1.40001e-05
 Reference value :  1.40002e-05
 Reference value :  1.40002e-05
 Reference value :  1.40004e-05
 Reference value :  1.40006e-05
 Reference value :  1.40011e-05
 Reference value :  1.40017e-05
 Reference value :  1.40025e-05
 Reference value :  1.40031e-05
 Reference value :  1.40039e-05
 Reference value :  1.40048e-05
 Reference value :  1.40058e-05
 Reference value :  1.40067e-05
 Reference value :  1.40079e-05
 Reference value :  1.40092e-05
 Reference value :  1.40108e-05
 Reference value :  1.40123e-05
 Reference value :  1.40136e-05
 Reference value :  1.40151e-05
 Reference value :  1.40167e-05
 Reference value :  1.40185e-05
 Reference value :  1.40219e-05
 Reference value :  1.40267e-05
 Reference value :  1.40363e-05
 Reference value :  1.40549e-05
 Reference value :  1.40882e-05
 Reference value :  1.41549e-05
 Reference value :  1.42501e-05
 Reference value :  1.42501e-05
 Reference value :  1.42501e-05
 Reference value :  1.42502e-05
 Reference value :  1.42502e-05
 Reference value :  1.42502e-05
 Reference value :  1.42502e-05
 Reference value :  1.42502e-05
 Reference value :  1.42502e-05
 Reference value :  1.42502e-05
 Reference value :  1.42502e-05
 Reference value :  1.42503e-05
 Reference value :  1.42503e-05
 Reference value :  1.42504e-05
 Reference value :  1.42506e-05
 Reference value :  1.42508e-05
 Reference value :  1.42511e-05
 Reference value :  1.42517e-05
 Reference value :  1.42523e-05
 Reference value :  1.42530e-05
 Reference value :  1.42538e-05
 Reference value :  1.42547e-05
 Reference value :  1.42557e-05
 Reference value :  1.42565e-05
 Reference value :  1.42574e-05
 Reference value :  1.42584e-05
 Reference value :  1.42593e-05
 Reference value :  1.42606e-05
 Reference value :  1.42620e-05
 Reference value :  1.42649e-05
 Reference value :  1.42686e-05
 Reference value :  1.42762e-05
 Reference value :  1.42913e-05
 Reference value :  1.43181e-05
 Reference value :  1.43719e-05
 Reference value :  1.44794e-05
 Reference value :  1.45000e-05
 Reference value :  1.45000e-05
 Reference value :  1.45000e-05
 Reference value :  1.45001e-05
 Reference value :  1.45001e-05
 Reference value :  1.45001e-05
 Reference value :  1.45001e-05
 Reference value :  1.45001e-05
 Reference value :  1.45001e-05
 Reference value :  1.45001e-05
 Reference value :  1.45001e-05
 Reference value :  1.45002e-05
 Reference value :  1.45002e-05
 Reference value :  1.45004e-05
 Reference value :  1.45006e-05
 Reference value :  1.45011e-05
 Reference value :  1.45017e-05
 Reference value :  1.45025e-05
 Reference value :  1.45031e-05
 Reference value :  1.45039e-05
 Reference value :  1.45048e-05
 Reference value :  1.45057e-05
 Reference value :  1.45067e-05
 Reference value :  1.45076e-05
 Reference value :  1.45086e-05
 Reference value :  1.45096e-05
 Reference value :  1.45108e-05
 Reference value :  1.45126e-05
 Reference value :  1.45149e-05
 Reference value :  1.45190e-05
 Reference value :  1.45238e-05
 Reference value :  1.45272e-05
 Reference value :  1.45299e-05
 Reference value :  1.45326e-05
 Reference value :  1.45353e-05
 Reference value :  1.45381e-05
 Reference value :  1.45414e-05
 Reference value :  1.45447e-05
 Reference value :  1.45507e-05
 Reference value :  1.45571e-05
 Reference value :  1.45650e-05
 Reference value :  1.45739e-05
 Reference value :  1.45800e-05
 Reference value :  1.45860e-05
 Reference value :  1.45935e-05
 Reference value :  1.46011e-05
 Reference value :  1.46084e-05
 Reference value :  1.46173e-05
 Reference value :  1.46261e-05
 Reference value :  1.46420e-05
 Reference value :  1.46601e-05
 Reference value :  1.46871e-05
 Reference value :  1.47315e-05
 Reference value :  1.47501e-05
 Reference value :  1.47501e-05
 Reference value :  1.47501e-05
 Reference value :  1.47502e-05
 Reference value :  1.47502e-05
 Reference value :  1.47502e-05
 Reference value :  1.47502e-05
 Reference value :  1.47502e-05
 Reference value :  1.47502e-05
 Reference value :  1.47502e-05
 Reference value :  1.47502e-05
 Reference value :  1.47503e-05
 Reference value :  1.47503e-05
 Reference value :  1.47504e-05
 Reference value :  1.47506e-05
 Reference value :  1.47508e-05
 Reference value :  1.47511e-05
 Reference value :  1.47517e-05
 Reference value :  1.47523e-05
 Reference value :  1.47530e-05
 Reference value :  1.47537e-05
 Reference value :  1.47546e-05
 Reference value :  1.47557e-05
 Reference value :  1.47569e-05
 Reference value :  1.47580e-05
 Reference value :  1.47591e-05
 Reference value :  1.47604e-05
 Reference value :  1.47621e-05
 Reference value :  1.47642e-05
[...]
 Reference value :  2.68140e-04
 Reference value :  2.68250e-04
 Reference value :  2.68250e-04
 Reference value :  2.68250e-04
 Reference value :  2.68250e-04
 Reference value :  2.68250e-04
 Reference value :  2.68250e-04
 Reference value :  2.68250e-04
 Reference value :  2.68250e-04
 Reference value :  2.68250e-04
 Reference value :  2.68250e-04
 Reference value :  2.68250e-04
 Reference value :  2.68250e-04
 Reference value :  2.68250e-04
 Reference value :  2.68250e-04
 Reference value :  2.68251e-04
 Reference value :  2.68251e-04
 Reference value :  2.68251e-04
 Reference value :  2.68252e-04
 Reference value :  2.68252e-04
 Reference value :  2.68253e-04
 Reference value :  2.68254e-04
 Reference value :  2.68255e-04
 Reference value :  2.68256e-04
 Reference value :  2.68256e-04
 Reference value :  2.68257e-04
 Reference value :  2.68258e-04
 Reference value :  2.68259e-04
 Reference value :  2.68260e-04
 Reference value :  2.68262e-04
 Reference value :  2.68263e-04
 Reference value :  2.68266e-04
 Reference value :  2.68268e-04
 Reference value :  2.68272e-04
 Reference value :  2.68277e-04
 Reference value :  2.68287e-04
 Reference value :  2.68308e-04
 Reference value :  2.68350e-04
 Reference value :  2.68433e-04
 Reference value :  2.68500e-04
 Reference value :  2.68500e-04
 Reference value :  2.68500e-04
 Reference value :  2.68500e-04
 Reference value :  2.68500e-04
 Reference value :  2.68500e-04
 Reference value :  2.68500e-04
 Reference value :  2.68500e-04
 Reference value :  2.68500e-04
 Reference value :  2.68500e-04
 Reference value :  2.68500e-04
 Reference value :  2.68500e-04
 Reference value :  2.68500e-04
 Reference value :  2.68500e-04
 Reference value :  2.68501e-04
 Reference value :  2.68501e-04
 Reference value :  2.68502e-04
 Reference value :  2.68502e-04
 Reference value :  2.68503e-04
 Reference value :  2.68504e-04
 Reference value :  2.68505e-04
 Reference value :  2.68506e-04
 Reference value :  2.68506e-04
 Reference value :  2.68507e-04
 Reference value :  2.68508e-04
 Reference value :  2.68509e-04
 Reference value :  2.68510e-04
 Reference value :  2.68511e-04
 Reference value :  2.68513e-04
 Reference value :  2.68515e-04
 Reference value :  2.68517e-04
 Reference value :  2.68519e-04
 Reference value :  2.68522e-04
 Reference value :  2.68524e-04
 Reference value :  2.68526e-04
 Reference value :  2.68528e-04
 Reference value :  2.68529e-04
 Reference value :  2.68531e-04
 Reference value :  2.68533e-04
 Reference value :  2.68534e-04
 Reference value :  2.68537e-04
 Reference value :  2.68540e-04
 Reference value :  2.68545e-04
 Reference value :  2.68552e-04
 Reference value :  2.68560e-04
 Reference value :  2.68566e-04
 Reference value :  2.68573e-04
 Reference value :  2.68584e-04
 Reference value :  2.68595e-04
 Reference value :  2.68604e-04
 Reference value :  2.68614e-04
 Reference value :  2.68623e-04
 Reference value :  2.68633e-04
 Reference value :  2.68644e-04
 Reference value :  2.68656e-04
 Reference value :  2.68668e-04
 Reference value :  2.68680e-04
 Reference value :  2.68692e-04
 Reference value :  2.68716e-04
 Reference value :  2.68745e-04
 Reference value :  2.68750e-04
 Reference value :  2.68750e-04
 Reference value :  2.68750e-04
 Reference value :  2.68750e-04
 Reference value :  2.68750e-04
 Reference value :  2.68750e-04
 Reference value :  2.68750e-04
 Reference value :  2.68750e-04
 Reference value :  2.68750e-04
 Reference value :  2.68750e-04
 Reference value :  2.68750e-04
 Reference value :  2.68750e-04
 Reference value :  2.68750e-04
 Reference value :  2.68750e-04
 Reference value :  2.68751e-04
 Reference value :  2.68751e-04
 Reference value :  2.68751e-04
 Reference value :  2.68752e-04
 Reference value :  2.68752e-04
 Reference value :  2.68753e-04
 Reference value :  2.68754e-04
 Reference value :  2.68755e-04
 Reference value :  2.68756e-04
 Reference value :  2.68757e-04
 Reference value :  2.68757e-04
 Reference value :  2.68758e-04
 Reference value :  2.68759e-04
 Reference value :  2.68761e-04
 Reference value :  2.68763e-04
 Reference value :  2.68766e-04
 Reference value :  2.68771e-04
 Reference value :  2.68779e-04
 Reference value :  2.68796e-04
 Reference value :  2.68831e-04
 Reference value :  2.68879e-04
 Reference value :  2.68950e-04
 Reference value :  2.69000e-04
 Reference value :  2.69000e-04
 Reference value :  2.69000e-04
 Reference value :  2.69000e-04
 Reference value :  2.69000e-04
 Reference value :  2.69000e-04
 Reference value :  2.69000e-04
 Reference value :  2.69000e-04
 Reference value :  2.69000e-04
 Reference value :  2.69000e-04
 Reference value :  2.69000e-04
 Reference value :  2.69000e-04
 Reference value :  2.69000e-04
 Reference value :  2.69000e-04
 Reference value :  2.69001e-04
 Reference value :  2.69001e-04
 Reference value :  2.69002e-04
 Reference value :  2.69002e-04
 Reference value :  2.69003e-04
 Reference value :  2.69004e-04
 Reference value :  2.69005e-04
 Reference value :  2.69006e-04
 Reference value :  2.69007e-04
 Reference value :  2.69008e-04
 Reference value :  2.69009e-04
 Reference value :  2.69011e-04
 Reference value :  2.69012e-04
 Reference value :  2.69014e-04
 Reference value :  2.69015e-04
 Reference value :  2.69017e-04
 Reference value :  2.69019e-04
 Reference value :  2.69022e-04
 Reference value :  2.69027e-04
 Reference value :  2.69037e-04
 Reference value :  2.69054e-04
 Reference value :  2.69085e-04
 Reference value :  2.69140e-04
 Reference value :  2.69249e-04
 Reference value :  2.69250e-04
 Reference value :  2.69250e-04
 Reference value :  2.69250e-04
 Reference value :  2.69250e-04
 Reference value :  2.69250e-04
 Reference value :  2.69250e-04
 Reference value :  2.69250e-04
 Reference value :  2.69250e-04
 Reference value :  2.69250e-04
 Reference value :  2.69250e-04
 Reference value :  2.69250e-04
 Reference value :  2.69250e-04
 Reference value :  2.69250e-04
 Reference value :  2.69250e-04
 Reference value :  2.69251e-04
 Reference value :  2.69251e-04
 Reference value :  2.69251e-04
 Reference value :  2.69252e-04
 Reference value :  2.69252e-04
 Reference value :  2.69253e-04
 Reference value :  2.69254e-04
 Reference value :  2.69255e-04
 Reference value :  2.69256e-04
 Reference value :  2.69256e-04
 Reference value :  2.69257e-04
 Reference value :  2.69258e-04
 Reference value :  2.69259e-04
 Reference value :  2.69260e-04
 Reference value :  2.69262e-04
 Reference value :  2.69263e-04
 Reference value :  2.69265e-04
 Reference value :  2.69267e-04
 Reference value :  2.69269e-04
 Reference value :  2.69274e-04
 Reference value :  2.69281e-04
 Reference value :  2.69293e-04
 Reference value :  2.69314e-04
 Reference value :  2.69349e-04
 Reference value :  2.69410e-04
 Reference value :  2.69500e-04
 Reference value :  2.69500e-04
 Reference value :  2.69500e-04
 Reference value :  2.69500e-04
 Reference value :  2.69500e-04
 Reference value :  2.69500e-04
 Reference value :  2.69500e-04
 Reference value :  2.69500e-04
 Reference value :  2.69500e-04
 Reference value :  2.69500e-04
 Reference value :  2.69500e-04
 Reference value :  2.69500e-04
 Reference value :  2.69500e-04
 Reference value :  2.69500e-04
 Reference value :  2.69501e-04
 Reference value :  2.69501e-04
 Reference value :  2.69502e-04
 Reference value :  2.69502e-04
 Reference value :  2.69503e-04
 Reference value :  2.69504e-04
 Reference value :  2.69505e-04
 Reference value :  2.69506e-04
 Reference value :  2.69507e-04
 Reference value :  2.69508e-04
 Reference value :  2.69509e-04
 Reference value :  2.69510e-04
 Reference value :  2.69511e-04
 Reference value :  2.69512e-04
 Reference value :  2.69514e-04
 Reference value :  2.69517e-04
 Reference value :  2.69519e-04
 Reference value :  2.69521e-04
 Reference value :  2.69523e-04
 Reference value :  2.69526e-04
 Reference value :  2.69528e-04
 Reference value :  2.69530e-04
 Reference value :  2.69531e-04
 Reference value :  2.69533e-04
 Reference value :  2.69535e-04
 Reference value :  2.69537e-04
 Reference value :  2.69540e-04
 Reference value :  2.69544e-04
 Reference value :  2.69547e-04
 Reference value :  2.69551e-04
 Reference value :  2.69554e-04
 Reference value :  2.69558e-04
 Reference value :  2.69563e-04
 Reference value :  2.69568e-04
 Reference value :  2.69579e-04
 Reference value :  2.69600e-04
 Reference value :  2.69636e-04
 Reference value :  2.69699e-04
 Reference value :  2.69750e-04
 Reference value :  2.69750e-04
 Reference value :  2.69750e-04
 Reference value :  2.69750e-04
 Reference value :  2.69750e-04
 Reference value :  2.69750e-04
 Reference value :  2.69750e-04
 Reference value :  2.69750e-04
 Reference value :  2.69750e-04
 Reference value :  2.69750e-04
 Reference value :  2.69750e-04
 Reference value :  2.69750e-04
 Reference value :  2.69750e-04
 Reference value :  2.69750e-04
 Reference value :  2.69751e-04
 Reference value :  2.69751e-04
 Reference value :  2.69751e-04
 Reference value :  2.69752e-04
 Reference value :  2.69752e-04
 Reference value :  2.69753e-04
 Reference value :  2.69754e-04
 Reference value :  2.69755e-04
 Reference value :  2.69756e-04
 Reference value :  2.69757e-04
 Reference value :  2.69758e-04
 Reference value :  2.69759e-04
 Reference value :  2.69760e-04
 Reference value :  2.69762e-04
 Reference value :  2.69764e-04
 Reference value :  2.69767e-04
 Reference value :  2.69772e-04
 Reference value :  2.69781e-04
 Reference value :  2.69797e-04
 Reference value :  2.69824e-04
 Reference value :  2.69878e-04
 Reference value :  2.69986e-04
 Reference value :  2.70000e-04
 Reference value :  2.70000e-04
 Reference value :  2.70000e-04
 Reference value :  2.70000e-04
 Reference value :  2.70000e-04
 Reference value :  2.70000e-04
 Reference value :  2.70000e-04
 Reference value :  2.70000e-04
 Reference value :  2.70000e-04
 Reference value :  2.70000e-04
 Reference value :  2.70000e-04
 Reference value :  2.70000e-04
 Reference value :  2.70000e-04
 Reference value :  2.70000e-04
 Reference value :  2.70001e-04
 Reference value :  2.70001e-04
 Reference value :  2.70002e-04
 Reference value :  2.70002e-04
 Reference value :  2.70003e-04
 Reference value :  2.70004e-04
 Reference value :  2.70005e-04
 Reference value :  2.70006e-04
 Reference value :  2.70007e-04
 Reference value :  2.70008e-04
 Reference value :  2.70009e-04
 Reference value :  2.70010e-04
 Reference value :  2.70012e-04
 Reference value :  2.70014e-04
 Reference value :  2.70015e-04
 Reference value :  2.70017e-04
 Reference value :  2.70018e-04
 Reference value :  2.70022e-04
 Reference value :  2.70026e-04
 Reference value :  2.70034e-04
 Reference value :  2.70051e-04
 Reference value :  2.70084e-04
 Reference value :  2.70150e-04
 Reference value :  2.70250e-04
 Reference value :  2.70250e-04
 Reference value :  2.70250e-04
 Reference value :  2.70250e-04
 Reference value :  2.70250e-04
 Reference value :  2.70250e-04
 Reference value :  2.70250e-04
 Reference value :  2.70250e-04
 Reference value :  2.70250e-04
 Reference value :  2.70250e-04
 Reference value :  2.70250e-04
 Reference value :  2.70250e-04
 Reference value :  2.70250e-04
 Reference value :  2.70250e-04
 Reference value :  2.70251e-04
 Reference value :  2.70251e-04
 Reference value :  2.70251e-04
 Reference value :  2.70252e-04
 Reference value :  2.70252e-04
 Reference value :  2.70253e-04
 Reference value :  2.70254e-04
 Reference value :  2.70255e-04
 Reference value :  2.70256e-04
 Reference value :  2.70257e-04
 Reference value :  2.70258e-04
 Reference value :  2.70259e-04
 Reference value :  2.70260e-04
 Reference value :  2.70261e-04
 Reference value :  2.70262e-04
 Reference value :  2.70265e-04
 Reference value :  2.70269e-04
 Reference value :  2.70276e-04
 Reference value :  2.70289e-04
 Reference value :  2.70316e-04
 Reference value :  2.70371e-04
 Reference value :  2.70479e-04
 Reference value :  2.70500e-04
 Reference value :  2.70500e-04
 Reference value :  2.70500e-04
 Reference value :  2.70500e-04
 Reference value :  2.70500e-04
 Reference value :  2.70500e-04
 Reference value :  2.70500e-04
 Reference value :  2.70500e-04
 Reference value :  2.70500e-04
 Reference value :  2.70500e-04
 Reference value :  2.70500e-04
 Reference value :  2.70500e-04
 Reference value :  2.70500e-04
 Reference value :  2.70500e-04
 Reference value :  2.70501e-04
 Reference value :  2.70501e-04
 Reference value :  2.70502e-04
 Reference value :  2.70502e-04
 Reference value :  2.70503e-04
 Reference value :  2.70504e-04
 Reference value :  2.70505e-04
 Reference value :  2.70506e-04
 Reference value :  2.70507e-04
 Reference value :  2.70507e-04
 Reference value :  2.70508e-04
 Reference value :  2.70509e-04
 Reference value :  2.70510e-04
 Reference value :  2.70512e-04
 Reference value :  2.70515e-04
 Reference value :  2.70517e-04
 Reference value :  2.70521e-04
 Reference value :  2.70524e-04
 Reference value :  2.70527e-04
 Reference value :  2.70529e-04
 Reference value :  2.70531e-04
 Reference value :  2.70533e-04
 Reference value :  2.70535e-04
 Reference value :  2.70538e-04
 Reference value :  2.70541e-04
 Reference value :  2.70545e-04
 Reference value :  2.70552e-04
 Reference value :  2.70564e-04
 Reference value :  2.70578e-04
 Reference value :  2.70594e-04
 Reference value :  2.70605e-04
 Reference value :  2.70615e-04
 Reference value :  2.70633e-04
 Reference value :  2.70650e-04
 Reference value :  2.70676e-04
 Reference value :  2.70697e-04
 Reference value :  2.70720e-04
 Reference value :  2.70750e-04
 Reference value :  2.70750e-04
 Reference value :  2.70750e-04
 Reference value :  2.70750e-04
 Reference value :  2.70750e-04
 Reference value :  2.70750e-04
 Reference value :  2.70750e-04
 Reference value :  2.70750e-04
 Reference value :  2.70750e-04
 Reference value :  2.70750e-04
 Reference value :  2.70750e-04
 Reference value :  2.70750e-04
 Reference value :  2.70750e-04
 Reference value :  2.70750e-04
 Reference value :  2.70751e-04
 Reference value :  2.70751e-04
 Reference value :  2.70751e-04
 Reference value :  2.70752e-04
 Reference value :  2.70752e-04
 Reference value :  2.70753e-04
 Reference value :  2.70754e-04
 Reference value :  2.70755e-04
 Reference value :  2.70756e-04
 Reference value :  2.70757e-04
 Reference value :  2.70758e-04
 Reference value :  2.70759e-04
 Reference value :  2.70760e-04
 Reference value :  2.70762e-04
 Reference value :  2.70764e-04
 Reference value :  2.70768e-04
 Reference value :  2.70773e-04
 Reference value :  2.70784e-04
 Reference value :  2.70803e-04
 Reference value :  2.70840e-04
 Reference value :  2.70913e-04
 Reference value :  2.71000e-04
 Reference value :  2.71000e-04
 Reference value :  2.71000e-04
 Reference value :  2.71000e-04
 Reference value :  2.71000e-04
 Reference value :  2.71000e-04
 Reference value :  2.71000e-04
 Reference value :  2.71000e-04
 Reference value :  2.71000e-04
 Reference value :  2.71000e-04
 Reference value :  2.71000e-04
 Reference value :  2.71000e-04
 Reference value :  2.71000e-04
 Reference value :  2.71000e-04
 Reference value :  2.71001e-04
 Reference value :  2.71001e-04
 Reference value :  2.71002e-04
 Reference value :  2.71002e-04
 Reference value :  2.71003e-04
 Reference value :  2.71004e-04
 Reference value :  2.71005e-04
 Reference value :  2.71006e-04
 Reference value :  2.71007e-04
 Reference value :  2.71008e-04
 Reference value :  2.71009e-04
 Reference value :  2.71011e-04
 Reference value :  2.71013e-04
 Reference value :  2.71014e-04
 Reference value :  2.71016e-04
 Reference value :  2.71018e-04
 Reference value :  2.71020e-04
 Reference value :  2.71024e-04
 Reference value :  2.71029e-04
 Reference value :  2.71037e-04
 Reference value :  2.71051e-04
 Reference value :  2.71078e-04
 Reference value :  2.71125e-04
 Reference value :  2.71218e-04
 Reference value :  2.71250e-04
 Reference value :  2.71250e-04
 Reference value :  2.71250e-04
 Reference value :  2.71250e-04
 Reference value :  2.71250e-04
 Reference value :  2.71250e-04
 Reference value :  2.71250e-04
 Reference value :  2.71250e-04
 Reference value :  2.71250e-04
 Reference value :  2.71250e-04
 Reference value :  2.71250e-04
 Reference value :  2.71250e-04
 Reference value :  2.71250e-04
 Reference value :  2.71250e-04
 Reference value :  2.71251e-04
 Reference value :  2.71251e-04
 Reference value :  2.71251e-04
 Reference value :  2.71252e-04
 Reference value :  2.71252e-04
 Reference value :  2.71253e-04
 Reference value :  2.71254e-04
 Reference value :  2.71255e-04
 Reference value :  2.71256e-04
 Reference value :  2.71257e-04
 Reference value :  2.71258e-04
 Reference value :  2.71259e-04
 Reference value :  2.71260e-04
 Reference value :  2.71261e-04
 Reference value :  2.71262e-04
 Reference value :  2.71263e-04
 Reference value :  2.71265e-04
 Reference value :  2.71267e-04
 Reference value :  2.71270e-04
 Reference value :  2.71274e-04
 Reference value :  2.71281e-04
 Reference value :  2.71294e-04
 Reference value :  2.71315e-04
 Reference value :  2.71353e-04
 Reference value :  2.71428e-04
 Reference value :  2.71500e-04
 Reference value :  2.71500e-04
 Reference value :  2.71500e-04
 Reference value :  2.71500e-04
 Reference value :  2.71500e-04
 Reference value :  2.71500e-04
 Reference value :  2.71500e-04
 Reference value :  2.71500e-04
 Reference value :  2.71500e-04
 Reference value :  2.71500e-04
 Reference value :  2.71500e-04
 Reference value :  2.71500e-04
 Reference value :  2.71500e-04
 Reference value :  2.71500e-04
 Reference value :  2.71501e-04
 Reference value :  2.71501e-04
 Reference value :  2.71502e-04
 Reference value :  2.71502e-04
 Reference value :  2.71503e-04
 Reference value :  2.71504e-04
 Reference value :  2.71505e-04
 Reference value :  2.71506e-04
 Reference value :  2.71507e-04
 Reference value :  2.71507e-04
 Reference value :  2.71508e-04
 Reference value :  2.71509e-04
 Reference value :  2.71510e-04
 Reference value :  2.71512e-04
 Reference value :  2.71513e-04
 Reference value :  2.71514e-04
 Reference value :  2.71516e-04
 Reference value :  2.71517e-04
 Reference value :  2.71519e-04
 Reference value :  2.71520e-04
 Reference value :  2.71521e-04
 Reference value :  2.71524e-04
 Reference value :  2.71526e-04
 Reference value :  2.71529e-04
 Reference value :  2.71532e-04
 Reference value :  2.71538e-04
 Reference value :  2.71544e-04
 Reference value :  2.71551e-04
 Reference value :  2.71556e-04
 Reference value :  2.71560e-04
 Reference value :  2.71566e-04
 Reference value :  2.71572e-04
 Reference value :  2.71580e-04
 Reference value :  2.71588e-04
 Reference value :  2.71605e-04
 Reference value :  2.71628e-04
 Reference value :  2.71665e-04
 Reference value :  2.71725e-04
 Reference value :  2.71750e-04
 Reference value :  2.71750e-04
 Reference value :  2.71750e-04
 Reference value :  2.71750e-04
 Reference value :  2.71750e-04
 Reference value :  2.71750e-04
 Reference value :  2.71750e-04
 Reference value :  2.71750e-04
 Reference value :  2.71750e-04
 Reference value :  2.71750e-04
 Reference value :  2.71750e-04
 Reference value :  2.71750e-04
 Reference value :  2.71750e-04
 Reference value :  2.71750e-04
 Reference value :  2.71751e-04
 Reference value :  2.71751e-04
 Reference value :  2.71751e-04
 Reference value :  2.71752e-04
 Reference value :  2.71753e-04
 Reference value :  2.71753e-04
 Reference value :  2.71754e-04
 Reference value :  2.71755e-04
 Reference value :  2.71757e-04
 Reference value :  2.71758e-04
 Reference value :  2.71760e-04
 Reference value :  2.71762e-04
 Reference value :  2.71764e-04
 Reference value :  2.71768e-04
 Reference value :  2.71773e-04
 Reference value :  2.71782e-04
 Reference value :  2.71796e-04
 Reference value :  2.71824e-04
 Reference value :  2.71880e-04
 Reference value :  2.71983e-04
 Reference value :  2.72000e-04
No. of Data Rows : 44197
ngspice-44 done
