
Note: Compatibility modes selected: hs a


Circuit: ** sch_path: /home/audrey/cace/sar-adc-using-sky130-pdk/runs/run_2025-08-29_17-28-30/parameters/power/run_06/power_consumption.sch

option SCALE: Scale is set to 1e-06 for instance and model parameters
option SCALE: Scale is set to 1e-06 for instance and model parameters
option SCALE: Scale is set to 1e-06 for instance and model parameters
option SCALE: Scale is set to 1e-06 for instance and model parameters
Doing analysis at TEMP = 27.000000 and TNOM = 27.000000

Using KLU as Direct Linear Solver
Operating point simulation skipped by 'uic',
  now using transient initial conditions.
 Reference value :  5.00000e-12
 Reference value :  5.14000e-12
 Reference value :  5.98000e-12
 Reference value :  8.69645e-12
 Reference value :  1.62297e-11
 Reference value :  3.62587e-11
 Reference value :  6.29642e-11
 Reference value :  1.16375e-10
 Reference value :  2.05190e-10
 Reference value :  3.65848e-10
 Reference value :  5.00000e-10
 Reference value :  5.46373e-10
 Reference value :  6.08204e-10
 Reference value :  9.79189e-10
 Reference value :  1.64169e-09
 Reference value :  2.17409e-09
 Reference value :  2.72474e-09
 Reference value :  3.52745e-09
 Reference value :  4.41775e-09
 Reference value :  5.32948e-09
 Reference value :  6.36764e-09
 Reference value :  7.46368e-09
 Reference value :  8.17224e-09
 Reference value :  9.54891e-09
 Reference value :  1.12710e-08
 Reference value :  1.20836e-08
 Reference value :  1.37105e-08
 Reference value :  1.59437e-08
 Reference value :  2.13714e-08
 Reference value :  2.64798e-08
 Reference value :  4.17760e-08
 Reference value :  7.03921e-08
 Reference value :  2.06293e-07
 Reference value :  5.00000e-07
 Reference value :  6.68557e-07
 Reference value :  1.00055e-06
 Reference value :  1.00085e-06
 Reference value :  1.00103e-06
 Reference value :  1.00121e-06
 Reference value :  1.00139e-06
 Reference value :  1.00158e-06
 Reference value :  1.00197e-06
 Reference value :  1.00241e-06
 Reference value :  1.00342e-06
 Reference value :  1.00473e-06
 Reference value :  1.00603e-06
 Reference value :  1.00766e-06
 Reference value :  1.01051e-06
 Reference value :  1.02375e-06
 Reference value :  1.03557e-06
 Reference value :  1.09627e-06
 Reference value :  1.66280e-06
 Reference value :  2.00015e-06
 Reference value :  2.00053e-06
 Reference value :  2.00074e-06
 Reference value :  2.00139e-06
 Reference value :  2.00221e-06
 Reference value :  2.00267e-06
 Reference value :  2.00320e-06
 Reference value :  2.00439e-06
 Reference value :  2.00501e-06
 Reference value :  2.00598e-06
 Reference value :  2.00703e-06
 Reference value :  2.00871e-06
 Reference value :  2.00990e-06
 Reference value :  2.01260e-06
 Reference value :  2.01419e-06
 Reference value :  2.01583e-06
 Reference value :  2.01781e-06
 Reference value :  2.02381e-06
 Reference value :  2.02886e-06
 Reference value :  2.05247e-06
 Reference value :  2.43637e-06
 Reference value :  3.00065e-06
 Reference value :  3.00100e-06
 Reference value :  3.00124e-06
 Reference value :  3.00178e-06
 Reference value :  3.00265e-06
 Reference value :  3.00379e-06
 Reference value :  3.00431e-06
 Reference value :  3.00548e-06
 Reference value :  3.00685e-06
 Reference value :  3.00925e-06
 Reference value :  3.01952e-06
 Reference value :  3.09128e-06
 Reference value :  3.66540e-06
 Reference value :  4.00005e-06
 Reference value :  4.00050e-06
 Reference value :  4.00074e-06
 Reference value :  4.00139e-06
 Reference value :  4.00221e-06
 Reference value :  4.00321e-06
 Reference value :  4.00376e-06
 Reference value :  4.00428e-06
 Reference value :  4.00540e-06
 Reference value :  4.00601e-06
 Reference value :  4.00845e-06
 Reference value :  4.01162e-06
 Reference value :  4.01294e-06
 Reference value :  4.01508e-06
 Reference value :  4.01721e-06
 Reference value :  4.02104e-06
 Reference value :  4.03075e-06
 Reference value :  4.07764e-06
 Reference value :  4.32107e-06
 Reference value :  4.87960e-06
 Reference value :  5.00065e-06
 Reference value :  5.00103e-06
 Reference value :  5.00151e-06
 Reference value :  5.00219e-06
 Reference value :  5.00266e-06
 Reference value :  5.00381e-06
 Reference value :  5.00434e-06
 Reference value :  5.00497e-06
 Reference value :  5.00615e-06
 Reference value :  5.00806e-06
 Reference value :  5.02242e-06
 Reference value :  5.23135e-06
 Reference value :  6.00000e-06
 Reference value :  6.00035e-06
 Reference value :  6.00060e-06
 Reference value :  6.00102e-06
 Reference value :  6.00179e-06
 Reference value :  6.00267e-06
 Reference value :  6.00440e-06
 Reference value :  6.00598e-06
 Reference value :  6.00774e-06
 Reference value :  6.00980e-06
 Reference value :  6.01228e-06
 Reference value :  6.03741e-06
 Reference value :  6.10254e-06
 Reference value :  6.67067e-06
 Reference value :  7.00065e-06
 Reference value :  7.00103e-06
 Reference value :  7.00151e-06
 Reference value :  7.00219e-06
 Reference value :  7.00380e-06
 Reference value :  7.00493e-06
 Reference value :  7.00606e-06
 Reference value :  7.00923e-06
 Reference value :  7.01941e-06
 Reference value :  7.09046e-06
 Reference value :  8.00000e-06
 Reference value :  8.00035e-06
 Reference value :  8.00060e-06
 Reference value :  8.00139e-06
 Reference value :  8.00221e-06
 Reference value :  8.00321e-06
 Reference value :  8.00376e-06
 Reference value :  8.00428e-06
 Reference value :  8.00540e-06
 Reference value :  8.00601e-06
 Reference value :  8.00845e-06
 Reference value :  8.01162e-06
 Reference value :  8.01294e-06
 Reference value :  8.01403e-06
 Reference value :  8.01721e-06
 Reference value :  8.01946e-06
 Reference value :  8.02569e-06
 Reference value :  8.04436e-06
 Reference value :  8.05795e-06
 Reference value :  8.06875e-06
 Reference value :  8.09578e-06
 Reference value :  8.11003e-06
 Reference value :  8.15147e-06
 Reference value :  8.25442e-06
 Reference value :  8.38519e-06
 Reference value :  8.80513e-06
 Reference value :  9.00055e-06
 Reference value :  9.00085e-06
 Reference value :  9.00103e-06
 Reference value :  9.00124e-06
 Reference value :  9.00178e-06
 Reference value :  9.00219e-06
 Reference value :  9.00314e-06
 Reference value :  9.00430e-06
 Reference value :  9.00542e-06
 Reference value :  9.00695e-06
 Reference value :  9.00948e-06
 Reference value :  9.01479e-06
 Reference value :  9.05860e-06
 Reference value :  9.40915e-06
 Reference value :  1.00000e-05
 Reference value :  1.00003e-05
 Reference value :  1.00006e-05
 Reference value :  1.00010e-05
 Reference value :  1.00018e-05
 Reference value :  1.00022e-05
 Reference value :  1.00026e-05
 Reference value :  1.00038e-05
 Reference value :  1.00051e-05
 Reference value :  1.00061e-05
 Reference value :  1.00069e-05
 Reference value :  1.00087e-05
 Reference value :  1.00108e-05
 Reference value :  1.00272e-05
 Reference value :  1.02620e-05
 Reference value :  1.10005e-05
 Reference value :  1.10008e-05
 Reference value :  1.10010e-05
 Reference value :  1.10012e-05
 Reference value :  1.10018e-05
 Reference value :  1.10022e-05
 Reference value :  1.10027e-05
 Reference value :  1.10038e-05
 Reference value :  1.10043e-05
 Reference value :  1.10049e-05
 Reference value :  1.10055e-05
 Reference value :  1.10061e-05
 Reference value :  1.10068e-05
 Reference value :  1.10076e-05
 Reference value :  1.10084e-05
 Reference value :  1.10094e-05
 Reference value :  1.10105e-05
 Reference value :  1.10122e-05
 Reference value :  1.10173e-05
 Reference value :  1.10298e-05
 Reference value :  1.10607e-05
 Reference value :  1.11414e-05
 Reference value :  1.14476e-05
 Reference value :  1.18560e-05
 Reference value :  1.20000e-05
 Reference value :  1.20003e-05
 Reference value :  1.20005e-05
 Reference value :  1.20007e-05
 Reference value :  1.20014e-05
 Reference value :  1.20022e-05
 Reference value :  1.20032e-05
 Reference value :  1.20043e-05
 Reference value :  1.20054e-05
 Reference value :  1.20068e-05
 Reference value :  1.20086e-05
 Reference value :  1.20108e-05
 Reference value :  1.20118e-05
 Reference value :  1.20138e-05
 Reference value :  1.20156e-05
 Reference value :  1.20176e-05
 Reference value :  1.20188e-05
 Reference value :  1.20218e-05
 Reference value :  1.20368e-05
 Reference value :  1.20452e-05
 Reference value :  1.20532e-05
 Reference value :  1.20595e-05
 Reference value :  1.20630e-05
 Reference value :  1.20658e-05
 Reference value :  1.20738e-05
 Reference value :  1.20856e-05
 Reference value :  1.21056e-05
 Reference value :  1.21673e-05
 Reference value :  1.23112e-05
 Reference value :  1.24206e-05
 Reference value :  1.28835e-05
 Reference value :  1.30006e-05
 Reference value :  1.30007e-05
 Reference value :  1.30010e-05
 Reference value :  1.30011e-05
 Reference value :  1.30015e-05
 Reference value :  1.30022e-05
 Reference value :  1.30027e-05
 Reference value :  1.30031e-05
 Reference value :  1.30043e-05
 Reference value :  1.30055e-05
 Reference value :  1.30071e-05
 Reference value :  1.30097e-05
 Reference value :  1.30155e-05
 Reference value :  1.30364e-05
 Reference value :  1.31202e-05
 Reference value :  1.34552e-05
 Reference value :  1.40000e-05
 Reference value :  1.40002e-05
 Reference value :  1.40005e-05
 Reference value :  1.40005e-05
 Reference value :  1.40006e-05
 Reference value :  1.40007e-05
 Reference value :  1.40014e-05
 Reference value :  1.40018e-05
 Reference value :  1.40022e-05
 Reference value :  1.40027e-05
 Reference value :  1.40032e-05
 Reference value :  1.40044e-05
 Reference value :  1.40060e-05
 Reference value :  1.40068e-05
 Reference value :  1.40087e-05
 Reference value :  1.40109e-05
 Reference value :  1.40245e-05
 Reference value :  1.40993e-05
 Reference value :  1.43335e-05
 Reference value :  1.50005e-05
 Reference value :  1.50009e-05
 Reference value :  1.50010e-05
 Reference value :  1.50012e-05
 Reference value :  1.50018e-05
 Reference value :  1.50022e-05
 Reference value :  1.50031e-05
 Reference value :  1.50043e-05
 Reference value :  1.50049e-05
 Reference value :  1.50055e-05
 Reference value :  1.50068e-05
 Reference value :  1.50112e-05
 Reference value :  1.50296e-05
 Reference value :  1.51716e-05
 Reference value :  1.60000e-05
 Reference value :  1.60004e-05
 Reference value :  1.60006e-05
 Reference value :  1.60014e-05
 Reference value :  1.60022e-05
 Reference value :  1.60038e-05
 Reference value :  1.60043e-05
 Reference value :  1.60054e-05
 Reference value :  1.60066e-05
 Reference value :  1.60100e-05
 Reference value :  1.60133e-05
 Reference value :  1.60168e-05
 Reference value :  1.60207e-05
 Reference value :  1.60338e-05
 Reference value :  1.60432e-05
 Reference value :  1.60520e-05
 Reference value :  1.60678e-05
 Reference value :  1.60956e-05
 Reference value :  1.62463e-05
 Reference value :  1.70005e-05
 Reference value :  1.70009e-05
 Reference value :  1.70011e-05
 Reference value :  1.70014e-05
 Reference value :  1.70026e-05
 Reference value :  1.70038e-05
 Reference value :  1.70050e-05
 Reference value :  1.70056e-05
 Reference value :  1.70070e-05
 Reference value :  1.70151e-05
 Reference value :  1.70991e-05
 Reference value :  1.80000e-05
 Reference value :  1.80004e-05
 Reference value :  1.80006e-05
 Reference value :  1.80015e-05
 Reference value :  1.80025e-05
 Reference value :  1.80035e-05
 Reference value :  1.80048e-05
 Reference value :  1.80064e-05
 Reference value :  1.80071e-05
 Reference value :  1.80088e-05
 Reference value :  1.80107e-05
 Reference value :  1.80131e-05
 Reference value :  1.80186e-05
 Reference value :  1.80335e-05
 Reference value :  1.80797e-05
 Reference value :  1.82642e-05
 Reference value :  1.90006e-05
 Reference value :  1.90009e-05
 Reference value :  1.90010e-05
 Reference value :  1.90011e-05
 Reference value :  1.90014e-05
 Reference value :  1.90017e-05
 Reference value :  1.90021e-05
 Reference value :  1.90026e-05
 Reference value :  1.90031e-05
 Reference value :  1.90038e-05
 Reference value :  1.90045e-05
 Reference value :  1.90050e-05
 Reference value :  1.90071e-05
 Reference value :  1.90098e-05
 Reference value :  1.90148e-05
 Reference value :  1.90438e-05
 Reference value :  1.91470e-05
 Reference value :  1.98900e-05
 Reference value :  2.00002e-05
 Reference value :  2.00005e-05
 Reference value :  2.00006e-05
 Reference value :  2.00015e-05
 Reference value :  2.00025e-05
 Reference value :  2.00035e-05
 Reference value :  2.00046e-05
 Reference value :  2.00056e-05
 Reference value :  2.00068e-05
 Reference value :  2.00085e-05
 Reference value :  2.00107e-05
 Reference value :  2.00128e-05
 Reference value :  2.00137e-05
 Reference value :  2.00167e-05
 Reference value :  2.00190e-05
 Reference value :  2.00222e-05
 Reference value :  2.00246e-05
 Reference value :  2.00307e-05
 Reference value :  2.00338e-05
 Reference value :  2.00360e-05
 Reference value :  2.00409e-05
 Reference value :  2.00526e-05
 Reference value :  2.00713e-05
 Reference value :  2.01460e-05
 Reference value :  2.04017e-05
 Reference value :  2.10005e-05
 Reference value :  2.10005e-05
 Reference value :  2.10008e-05
 Reference value :  2.10010e-05
 Reference value :  2.10011e-05
 Reference value :  2.10014e-05
 Reference value :  2.10021e-05
 Reference value :  2.10038e-05
 Reference value :  2.10050e-05
 Reference value :  2.10063e-05
 Reference value :  2.10079e-05
 Reference value :  2.10118e-05
 Reference value :  2.10332e-05
 Reference value :  2.11973e-05
 Reference value :  2.17599e-05
 Reference value :  2.20000e-05
 Reference value :  2.20004e-05
 Reference value :  2.20005e-05
 Reference value :  2.20006e-05
 Reference value :  2.20007e-05
 Reference value :  2.20015e-05
 Reference value :  2.20025e-05
 Reference value :  2.20035e-05
 Reference value :  2.20041e-05
 Reference value :  2.20053e-05
 Reference value :  2.20062e-05
 Reference value :  2.20068e-05
 Reference value :  2.20086e-05
 Reference value :  2.20104e-05
 Reference value :  2.20127e-05
 Reference value :  2.20267e-05
 Reference value :  2.22336e-05
 Reference value :  2.30005e-05
 Reference value :  2.30008e-05
 Reference value :  2.30010e-05
 Reference value :  2.30014e-05
 Reference value :  2.30021e-05
 Reference value :  2.30031e-05
 Reference value :  2.30045e-05
 Reference value :  2.30050e-05
 Reference value :  2.30063e-05
 Reference value :  2.30095e-05
 Reference value :  2.30213e-05
 Reference value :  2.31020e-05
 Reference value :  2.37354e-05
 Reference value :  2.40002e-05
 Reference value :  2.40005e-05
 Reference value :  2.40006e-05
 Reference value :  2.40010e-05
 Reference value :  2.40020e-05
 Reference value :  2.40025e-05
 Reference value :  2.40035e-05
 Reference value :  2.40041e-05
 Reference value :  2.40046e-05
 Reference value :  2.40052e-05
 Reference value :  2.40056e-05
 Reference value :  2.40069e-05
 Reference value :  2.40106e-05
 Reference value :  2.40120e-05
 Reference value :  2.40146e-05
 Reference value :  2.40165e-05
 Reference value :  2.40190e-05
 Reference value :  2.40224e-05
 Reference value :  2.40337e-05
 Reference value :  2.40388e-05
 Reference value :  2.40461e-05
 Reference value :  2.40550e-05
 Reference value :  2.40656e-05
 Reference value :  2.40942e-05
 Reference value :  2.42500e-05
 Reference value :  2.48083e-05
 Reference value :  2.50005e-05
 Reference value :  2.50008e-05
 Reference value :  2.50010e-05
 Reference value :  2.50014e-05
 Reference value :  2.50026e-05
 Reference value :  2.50045e-05
 Reference value :  2.50050e-05
 Reference value :  2.50062e-05
 Reference value :  2.50079e-05
 Reference value :  2.50118e-05
 Reference value :  2.50216e-05
 Reference value :  2.50576e-05
 Reference value :  2.51043e-05
 Reference value :  2.53847e-05
 Reference value :  2.60000e-05
 Reference value :  2.60002e-05
 Reference value :  2.60004e-05
 Reference value :  2.60005e-05
 Reference value :  2.60006e-05
 Reference value :  2.60010e-05
 Reference value :  2.60015e-05
 Reference value :  2.60025e-05
 Reference value :  2.60030e-05
 Reference value :  2.60035e-05
 Reference value :  2.60042e-05
 Reference value :  2.60048e-05
 Reference value :  2.60056e-05
 Reference value :  2.60065e-05
 Reference value :  2.60071e-05
 Reference value :  2.60088e-05
 Reference value :  2.60107e-05
 Reference value :  2.60131e-05
 Reference value :  2.60335e-05
 Reference value :  2.60794e-05
 Reference value :  2.65074e-05
 Reference value :  2.70006e-05
 Reference value :  2.70009e-05
 Reference value :  2.70010e-05
 Reference value :  2.70012e-05
 Reference value :  2.70017e-05
 Reference value :  2.70021e-05
 Reference value :  2.70026e-05
 Reference value :  2.70038e-05
 Reference value :  2.70050e-05
 Reference value :  2.70063e-05
 Reference value :  2.70088e-05
 Reference value :  2.70127e-05
 Reference value :  2.70233e-05
 Reference value :  2.70941e-05
 Reference value :  2.74568e-05
 Reference value :  2.80000e-05
 Reference value :  2.80005e-05
 Reference value :  2.80006e-05
 Reference value :  2.80010e-05
 Reference value :  2.80020e-05
 Reference value :  2.80030e-05
 Reference value :  2.80041e-05
 Reference value :  2.80046e-05
 Reference value :  2.80056e-05
 Reference value :  2.80076e-05
 Reference value :  2.80098e-05
 Reference value :  2.80107e-05
 Reference value :  2.80129e-05
 Reference value :  2.80137e-05
 Reference value :  2.80156e-05
 Reference value :  2.80190e-05
 Reference value :  2.80244e-05
 Reference value :  2.80484e-05
 Reference value :  2.81184e-05
 Reference value :  2.82814e-05
 Reference value :  2.84187e-05
 Reference value :  2.89135e-05
 Reference value :  2.90007e-05
 Reference value :  2.90010e-05
 Reference value :  2.90012e-05
 Reference value :  2.90017e-05
 Reference value :  2.90031e-05
 Reference value :  2.90045e-05
 Reference value :  2.90050e-05
 Reference value :  2.90062e-05
 Reference value :  2.90070e-05
 Reference value :  2.90095e-05
 Reference value :  2.90327e-05
 Reference value :  2.93755e-05
 Reference value :  3.00001e-05
 Reference value :  3.00005e-05
 Reference value :  3.00006e-05
 Reference value :  3.00015e-05
 Reference value :  3.00025e-05
 Reference value :  3.00035e-05
 Reference value :  3.00055e-05
 Reference value :  3.00064e-05
 Reference value :  3.00071e-05
 Reference value :  3.00079e-05
 Reference value :  3.00088e-05
 Reference value :  3.00107e-05
 Reference value :  3.00118e-05
 Reference value :  3.00131e-05
 Reference value :  3.00154e-05
 Reference value :  3.00241e-05
 Reference value :  3.00334e-05
 Reference value :  3.00790e-05
 Reference value :  3.09914e-05
 Reference value :  3.10006e-05
 Reference value :  3.10010e-05
 Reference value :  3.10011e-05
 Reference value :  3.10014e-05
 Reference value :  3.10017e-05
 Reference value :  3.10026e-05
 Reference value :  3.10038e-05
 Reference value :  3.10050e-05
 Reference value :  3.10056e-05
 Reference value :  3.10063e-05
 Reference value :  3.10071e-05
 Reference value :  3.10079e-05
 Reference value :  3.10088e-05
 Reference value :  3.10127e-05
 Reference value :  3.10180e-05
 Reference value :  3.10311e-05
 Reference value :  3.10636e-05
 Reference value :  3.11478e-05
 Reference value :  3.12540e-05
 Reference value :  3.14664e-05
 Reference value :  3.18913e-05
 Reference value :  3.20000e-05
 Reference value :  3.20000e-05
 Reference value :  3.20001e-05
 Reference value :  3.20003e-05
 Reference value :  3.20005e-05
 Reference value :  3.20005e-05
 Reference value :  3.20006e-05
 Reference value :  3.20010e-05
 Reference value :  3.20015e-05
 Reference value :  3.20020e-05
 Reference value :  3.20025e-05
 Reference value :  3.20030e-05
 Reference value :  3.20035e-05
 Reference value :  3.20041e-05
 Reference value :  3.20046e-05
 Reference value :  3.20052e-05
 Reference value :  3.20056e-05
 Reference value :  3.20062e-05
 Reference value :  3.20076e-05
 Reference value :  3.20083e-05
 Reference value :  3.20091e-05
 Reference value :  3.20098e-05
 Reference value :  3.20106e-05
 Reference value :  3.20115e-05
 Reference value :  3.20125e-05
 Reference value :  3.20139e-05
 Reference value :  3.20155e-05
 Reference value :  3.20177e-05
 Reference value :  3.20198e-05
 Reference value :  3.20227e-05
 Reference value :  3.20248e-05
 Reference value :  3.20271e-05
 Reference value :  3.20300e-05
 Reference value :  3.20331e-05
 Reference value :  3.20534e-05
 Reference value :  3.20694e-05
 Reference value :  3.21359e-05
 Reference value :  3.22869e-05
 Reference value :  3.27959e-05
 Reference value :  3.30005e-05
 Reference value :  3.30006e-05
 Reference value :  3.30007e-05
 Reference value :  3.30009e-05
 Reference value :  3.30010e-05
 Reference value :  3.30010e-05
 Reference value :  3.30011e-05
 Reference value :  3.30012e-05
 Reference value :  3.30015e-05
 Reference value :  3.30017e-05
 Reference value :  3.30027e-05
 Reference value :  3.30032e-05
 Reference value :  3.30039e-05
 Reference value :  3.30046e-05
 Reference value :  3.30065e-05
 Reference value :  3.30075e-05
 Reference value :  3.30089e-05
 Reference value :  3.30134e-05
 Reference value :  3.30177e-05
 Reference value :  3.30433e-05
 Reference value :  3.31456e-05
 Reference value :  3.32821e-05
 Reference value :  3.35551e-05
 Reference value :  3.40000e-05
No. of Data Rows : 1271
ngspice-44 done
