
Note: Compatibility modes selected: hs a


Circuit: ** sch_path: /home/ece/cace/sar-adc-using-sky130-pdk/runs/run_2025-09-12_21-25-08/parameters/dnl/run_4/sar_output_dnl.sch

option SCALE: Scale is set to 1e-06 for instance and model parameters
option SCALE: Scale is set to 1e-06 for instance and model parameters
option SCALE: Scale is set to 1e-06 for instance and model parameters
option SCALE: Scale is set to 1e-06 for instance and model parameters
Doing analysis at TEMP = 27.000000 and TNOM = 27.000000

Using KLU as Direct Linear Solver
Operating point simulation skipped by 'uic',
  now using transient initial conditions.
 Reference value :  1.00000e-12
 Reference value :  1.08400e-12
 Reference value :  1.42000e-12
 Reference value :  2.29517e-12
 Reference value :  6.46464e-12
 Reference value :  1.99285e-11
 Reference value :  5.62953e-11
 Reference value :  1.04849e-10
 Reference value :  1.72734e-10
 Reference value :  6.62120e-10
 Reference value :  1.37854e-09
 Reference value :  2.49849e-09
 Reference value :  4.20762e-09
 Reference value :  5.95792e-09
 Reference value :  7.04813e-09
 Reference value :  9.08008e-09
 Reference value :  1.07371e-08
 Reference value :  1.29653e-08
 Reference value :  1.43193e-08
 Reference value :  1.53996e-08
 Reference value :  1.73200e-08
 Reference value :  2.19644e-08
 Reference value :  2.80155e-08
 Reference value :  4.83458e-08
 Reference value :  1.85699e-07
 Reference value :  2.50130e-07
 Reference value :  2.50208e-07
 Reference value :  2.50308e-07
 Reference value :  2.50653e-07
 Reference value :  2.51636e-07
 Reference value :  2.53419e-07
 Reference value :  2.54619e-07
 Reference value :  2.56690e-07
 Reference value :  2.61136e-07
 Reference value :  2.68314e-07
 Reference value :  2.87269e-07
 Reference value :  2.97496e-07
 Reference value :  3.06632e-07
 Reference value :  3.25116e-07
 Reference value :  3.77950e-07
 Reference value :  5.00000e-07
 Reference value :  5.00030e-07
 Reference value :  5.00100e-07
 Reference value :  5.00124e-07
 Reference value :  5.00220e-07
 Reference value :  5.00500e-07
 Reference value :  5.01286e-07
 Reference value :  5.02186e-07
 Reference value :  5.03949e-07
 Reference value :  5.06750e-07
 Reference value :  5.08011e-07
 Reference value :  5.12090e-07
 Reference value :  5.15163e-07
 Reference value :  5.19288e-07
 Reference value :  5.31185e-07
 Reference value :  5.77395e-07
 Reference value :  7.00524e-07
 Reference value :  7.50110e-07
 Reference value :  7.50170e-07
 Reference value :  7.50208e-07
 Reference value :  7.50255e-07
 Reference value :  7.50444e-07
 Reference value :  7.50948e-07
 Reference value :  7.51387e-07
 Reference value :  7.53027e-07
 Reference value :  7.54418e-07
 Reference value :  7.56654e-07
 Reference value :  7.59294e-07
 Reference value :  7.75033e-07
 Reference value :  1.00001e-06
 Reference value :  1.00011e-06
 Reference value :  1.00034e-06
 Reference value :  1.00176e-06
 Reference value :  1.00330e-06
 Reference value :  1.00443e-06
 Reference value :  1.00557e-06
 Reference value :  1.00754e-06
 Reference value :  1.01067e-06
 Reference value :  1.01366e-06
 Reference value :  1.01761e-06
 Reference value :  1.02208e-06
 Reference value :  1.04635e-06
 Reference value :  1.14694e-06
 Reference value :  1.18391e-06
 Reference value :  1.23059e-06
 Reference value :  1.25013e-06
 Reference value :  1.25021e-06
 Reference value :  1.25032e-06
 Reference value :  1.25068e-06
 Reference value :  1.25138e-06
 Reference value :  1.25236e-06
 Reference value :  1.25379e-06
 Reference value :  1.25440e-06
 Reference value :  1.25669e-06
 Reference value :  1.25924e-06
 Reference value :  1.27303e-06
 Reference value :  1.34608e-06
 Reference value :  1.50001e-06
 Reference value :  1.50010e-06
 Reference value :  1.50016e-06
 Reference value :  1.50034e-06
 Reference value :  1.50083e-06
 Reference value :  1.50128e-06
 Reference value :  1.50219e-06
 Reference value :  1.50323e-06
 Reference value :  1.50442e-06
 Reference value :  1.50616e-06
 Reference value :  1.50819e-06
 Reference value :  1.51036e-06
 Reference value :  1.51551e-06
 Reference value :  1.54496e-06
 Reference value :  1.75010e-06
 Reference value :  1.75013e-06
 Reference value :  1.75020e-06
 Reference value :  1.75026e-06
 Reference value :  1.75044e-06
 Reference value :  1.75094e-06
 Reference value :  1.75138e-06
 Reference value :  1.75236e-06
 Reference value :  1.75377e-06
 Reference value :  1.75507e-06
 Reference value :  1.75760e-06
 Reference value :  1.76567e-06
 Reference value :  1.84447e-06
 Reference value :  2.00001e-06
 Reference value :  2.00010e-06
 Reference value :  2.00016e-06
 Reference value :  2.00050e-06
 Reference value :  2.00128e-06
 Reference value :  2.00219e-06
 Reference value :  2.00329e-06
 Reference value :  2.00441e-06
 Reference value :  2.00557e-06
 Reference value :  2.00609e-06
 Reference value :  2.00844e-06
 Reference value :  2.01143e-06
 Reference value :  2.01389e-06
 Reference value :  2.01603e-06
 Reference value :  2.01707e-06
 Reference value :  2.02106e-06
 Reference value :  2.03156e-06
 Reference value :  2.04515e-06
 Reference value :  2.06111e-06
 Reference value :  2.07217e-06
 Reference value :  2.08935e-06
 Reference value :  2.14311e-06
 Reference value :  2.25011e-06
 Reference value :  2.25020e-06
 Reference value :  2.25026e-06
 Reference value :  2.25068e-06
 Reference value :  2.25138e-06
 Reference value :  2.25236e-06
 Reference value :  2.25373e-06
 Reference value :  2.25509e-06
 Reference value :  2.25787e-06
 Reference value :  2.27319e-06
 Reference value :  2.34232e-06
 Reference value :  2.50001e-06
 Reference value :  2.50010e-06
 Reference value :  2.50016e-06
 Reference value :  2.50050e-06
 Reference value :  2.50129e-06
 Reference value :  2.50218e-06
 Reference value :  2.50332e-06
 Reference value :  2.50473e-06
 Reference value :  2.50657e-06
 Reference value :  2.50734e-06
 Reference value :  2.50903e-06
 Reference value :  2.51120e-06
 Reference value :  2.51959e-06
 Reference value :  2.58479e-06
 Reference value :  2.75011e-06
 Reference value :  2.75020e-06
 Reference value :  2.75026e-06
 Reference value :  2.75068e-06
 Reference value :  2.75138e-06
 Reference value :  2.75235e-06
 Reference value :  2.75376e-06
 Reference value :  2.75439e-06
 Reference value :  2.75577e-06
 Reference value :  2.75758e-06
 Reference value :  2.75934e-06
 Reference value :  2.76488e-06
 Reference value :  2.80846e-06
 Reference value :  3.00000e-06
 Reference value :  3.00003e-06
 Reference value :  3.00011e-06
 Reference value :  3.00022e-06
 Reference value :  3.00083e-06
 Reference value :  3.00128e-06
 Reference value :  3.00219e-06
 Reference value :  3.00329e-06
 Reference value :  3.00441e-06
 Reference value :  3.00556e-06
 Reference value :  3.00670e-06
 Reference value :  3.00973e-06
 Reference value :  3.01174e-06
 Reference value :  3.01369e-06
 Reference value :  3.01546e-06
 Reference value :  3.01746e-06
 Reference value :  3.01963e-06
 Reference value :  3.02661e-06
 Reference value :  3.04915e-06
 Reference value :  3.05866e-06
 Reference value :  3.06751e-06
 Reference value :  3.07311e-06
 Reference value :  3.08525e-06
 Reference value :  3.12232e-06
 Reference value :  3.19995e-06
 Reference value :  3.25013e-06
 Reference value :  3.25022e-06
 Reference value :  3.25045e-06
 Reference value :  3.25138e-06
 Reference value :  3.25302e-06
 Reference value :  3.25438e-06
 Reference value :  3.25666e-06
 Reference value :  3.26142e-06
 Reference value :  3.30609e-06
 Reference value :  3.50001e-06
 Reference value :  3.50010e-06
 Reference value :  3.50016e-06
 Reference value :  3.50050e-06
 Reference value :  3.50128e-06
 Reference value :  3.50219e-06
 Reference value :  3.50323e-06
 Reference value :  3.50442e-06
 Reference value :  3.50616e-06
 Reference value :  3.50818e-06
 Reference value :  3.51158e-06
 Reference value :  3.54486e-06
 Reference value :  3.75013e-06
 Reference value :  3.75022e-06
 Reference value :  3.75044e-06
 Reference value :  3.75138e-06
 Reference value :  3.75302e-06
 Reference value :  3.75440e-06
 Reference value :  3.75671e-06
 Reference value :  3.76554e-06
 Reference value :  4.00000e-06
 Reference value :  4.00007e-06
 Reference value :  4.00016e-06
 Reference value :  4.00050e-06
 Reference value :  4.00128e-06
 Reference value :  4.00219e-06
 Reference value :  4.00329e-06
 Reference value :  4.00440e-06
 Reference value :  4.00557e-06
 Reference value :  4.00671e-06
 Reference value :  4.00999e-06
 Reference value :  4.01280e-06
 Reference value :  4.01388e-06
 Reference value :  4.01603e-06
 Reference value :  4.01707e-06
 Reference value :  4.01937e-06
 Reference value :  4.02610e-06
 Reference value :  4.03442e-06
 Reference value :  4.04041e-06
 Reference value :  4.05255e-06
 Reference value :  4.07928e-06
 Reference value :  4.16920e-06
 Reference value :  4.25011e-06
 Reference value :  4.25020e-06
 Reference value :  4.25032e-06
 Reference value :  4.25095e-06
 Reference value :  4.25185e-06
 Reference value :  4.25302e-06
 Reference value :  4.25440e-06
 Reference value :  4.25675e-06
 Reference value :  4.26185e-06
 Reference value :  4.28491e-06
 Reference value :  4.40455e-06
 Reference value :  4.50007e-06
 Reference value :  4.50016e-06
 Reference value :  4.50050e-06
 Reference value :  4.50129e-06
 Reference value :  4.50218e-06
 Reference value :  4.50395e-06
 Reference value :  4.50553e-06
 Reference value :  4.50734e-06
 Reference value :  4.50903e-06
 Reference value :  4.51119e-06
 Reference value :  4.51957e-06
 Reference value :  4.58490e-06
 Reference value :  4.75011e-06
 Reference value :  4.75020e-06
 Reference value :  4.75032e-06
 Reference value :  4.75094e-06
 Reference value :  4.75185e-06
 Reference value :  4.75376e-06
 Reference value :  4.75505e-06
 Reference value :  4.75670e-06
 Reference value :  4.75842e-06
 Reference value :  4.76214e-06
 Reference value :  4.78744e-06
 Reference value :  5.00000e-06
 Reference value :  5.00007e-06
 Reference value :  5.00016e-06
 Reference value :  5.00050e-06
 Reference value :  5.00128e-06
 Reference value :  5.00219e-06
 Reference value :  5.00329e-06
 Reference value :  5.00441e-06
 Reference value :  5.00556e-06
 Reference value :  5.00670e-06
 Reference value :  5.00973e-06
 Reference value :  5.01174e-06
 Reference value :  5.01368e-06
 Reference value :  5.01652e-06
 Reference value :  5.01881e-06
 Reference value :  5.02389e-06
 Reference value :  5.04070e-06
 Reference value :  5.05414e-06
 Reference value :  5.07955e-06
 Reference value :  5.13573e-06
 Reference value :  5.19291e-06
 Reference value :  5.25011e-06
 Reference value :  5.25020e-06
 Reference value :  5.25032e-06
 Reference value :  5.25094e-06
 Reference value :  5.25185e-06
 Reference value :  5.25302e-06
 Reference value :  5.25436e-06
 Reference value :  5.25662e-06
 Reference value :  5.25910e-06
 Reference value :  5.27233e-06
 Reference value :  5.40578e-06
 Reference value :  5.50003e-06
 Reference value :  5.50010e-06
 Reference value :  5.50016e-06
 Reference value :  5.50083e-06
 Reference value :  5.50218e-06
 Reference value :  5.50395e-06
 Reference value :  5.50553e-06
 Reference value :  5.50734e-06
 Reference value :  5.51003e-06
 Reference value :  5.52891e-06
 Reference value :  5.75011e-06
 Reference value :  5.75020e-06
 Reference value :  5.75026e-06
 Reference value :  5.75068e-06
 Reference value :  5.75138e-06
 Reference value :  5.75302e-06
 Reference value :  5.75439e-06
 Reference value :  5.75670e-06
 Reference value :  5.75842e-06
 Reference value :  5.76214e-06
 Reference value :  5.78725e-06
 Reference value :  6.00000e-06
 Reference value :  6.00007e-06
 Reference value :  6.00016e-06
 Reference value :  6.00050e-06
 Reference value :  6.00128e-06
 Reference value :  6.00268e-06
 Reference value :  6.00391e-06
 Reference value :  6.00499e-06
 Reference value :  6.00609e-06
 Reference value :  6.00843e-06
 Reference value :  6.01071e-06
 Reference value :  6.01285e-06
 Reference value :  6.01448e-06
 Reference value :  6.01621e-06
 Reference value :  6.01924e-06
 Reference value :  6.02535e-06
 Reference value :  6.04379e-06
 Reference value :  6.14381e-06
 Reference value :  6.25010e-06
 Reference value :  6.25017e-06
 Reference value :  6.25022e-06
 Reference value :  6.25044e-06
 Reference value :  6.25094e-06
 Reference value :  6.25138e-06
 Reference value :  6.25235e-06
 Reference value :  6.25375e-06
 Reference value :  6.25501e-06
 Reference value :  6.25662e-06
 Reference value :  6.25911e-06
 Reference value :  6.27230e-06
 Reference value :  6.33954e-06
 Reference value :  6.50001e-06
 Reference value :  6.50007e-06
 Reference value :  6.50012e-06
 Reference value :  6.50034e-06
 Reference value :  6.50083e-06
 Reference value :  6.50176e-06
 Reference value :  6.50218e-06
 Reference value :  6.50395e-06
 Reference value :  6.50473e-06
 Reference value :  6.50657e-06
 Reference value :  6.50734e-06
 Reference value :  6.50903e-06
 Reference value :  6.51119e-06
 Reference value :  6.51954e-06
 Reference value :  6.65971e-06
 Reference value :  6.75013e-06
 Reference value :  6.75021e-06
 Reference value :  6.75044e-06
 Reference value :  6.75138e-06
 Reference value :  6.75235e-06
 Reference value :  6.75376e-06
 Reference value :  6.75504e-06
 Reference value :  6.75670e-06
 Reference value :  6.75842e-06
 Reference value :  6.76214e-06
 Reference value :  6.77522e-06
 Reference value :  6.84798e-06
 Reference value :  7.00001e-06
 Reference value :  7.00010e-06
 Reference value :  7.00016e-06
 Reference value :  7.00050e-06
 Reference value :  7.00128e-06
 Reference value :  7.00219e-06
 Reference value :  7.00329e-06
 Reference value :  7.00441e-06
 Reference value :  7.00556e-06
 Reference value :  7.00670e-06
 Reference value :  7.00843e-06
 Reference value :  7.01072e-06
 Reference value :  7.01286e-06
 Reference value :  7.01368e-06
 Reference value :  7.01652e-06
 Reference value :  7.01881e-06
 Reference value :  7.02179e-06
 Reference value :  7.04144e-06
 Reference value :  7.18627e-06
 Reference value :  7.25017e-06
 Reference value :  7.25026e-06
 Reference value :  7.25068e-06
 Reference value :  7.25138e-06
 Reference value :  7.25302e-06
 Reference value :  7.25436e-06
 Reference value :  7.25662e-06
 Reference value :  7.26138e-06
 Reference value :  7.30421e-06
 Reference value :  7.50000e-06
 Reference value :  7.50007e-06
 Reference value :  7.50016e-06
 Reference value :  7.50083e-06
 Reference value :  7.50176e-06
 Reference value :  7.50265e-06
 Reference value :  7.50395e-06
 Reference value :  7.50553e-06
 Reference value :  7.50734e-06
 Reference value :  7.50903e-06
 Reference value :  7.51241e-06
 Reference value :  7.54767e-06
 Reference value :  7.75011e-06
 Reference value :  7.75020e-06
 Reference value :  7.75026e-06
 Reference value :  7.75068e-06
 Reference value :  7.75138e-06
 Reference value :  7.75235e-06
 Reference value :  7.75376e-06
 Reference value :  7.75504e-06
 Reference value :  7.75757e-06
 Reference value :  7.75933e-06
 Reference value :  7.76483e-06
 Reference value :  7.78710e-06
 Reference value :  7.92188e-06
 Reference value :  8.00003e-06
 Reference value :  8.00011e-06
 Reference value :  8.00022e-06
 Reference value :  8.00083e-06
 Reference value :  8.00176e-06
 Reference value :  8.00268e-06
 Reference value :  8.00391e-06
 Reference value :  8.00499e-06
 Reference value :  8.00556e-06
 Reference value :  8.00670e-06
 Reference value :  8.00843e-06
 Reference value :  8.00997e-06
 Reference value :  8.01182e-06
 Reference value :  8.01635e-06
 Reference value :  8.02545e-06
 Reference value :  8.04231e-06
 Reference value :  8.09563e-06
 Reference value :  8.14062e-06
 Reference value :  8.22216e-06
 Reference value :  8.25013e-06
 Reference value :  8.25021e-06
 Reference value :  8.25032e-06
 Reference value :  8.25070e-06
 Reference value :  8.25138e-06
 Reference value :  8.25237e-06
 Reference value :  8.25387e-06
 Reference value :  8.25565e-06
 Reference value :  8.25789e-06
 Reference value :  8.26176e-06
 Reference value :  8.28058e-06
 Reference value :  8.38355e-06
 Reference value :  8.50000e-06
 Reference value :  8.50000e-06
 Reference value :  8.50000e-06
 Reference value :  8.50002e-06
 Reference value :  8.50010e-06
 Reference value :  8.50018e-06
 Reference value :  8.50080e-06
 Reference value :  8.50170e-06
 Reference value :  8.50268e-06
 Reference value :  8.50475e-06
 Reference value :  8.50540e-06
 Reference value :  8.50682e-06
 Reference value :  8.51088e-06
 Reference value :  8.52084e-06
 Reference value :  8.52697e-06
 Reference value :  8.53142e-06
 Reference value :  8.53757e-06
 Reference value :  8.54297e-06
 Reference value :  8.54741e-06
 Reference value :  8.55039e-06
 Reference value :  8.55732e-06
 Reference value :  8.57072e-06
 Reference value :  8.61582e-06
 Reference value :  8.75010e-06
 Reference value :  8.75017e-06
 Reference value :  8.75022e-06
 Reference value :  8.75044e-06
 Reference value :  8.75094e-06
 Reference value :  8.75138e-06
 Reference value :  8.75236e-06
 Reference value :  8.75377e-06
 Reference value :  8.75503e-06
 Reference value :  8.75665e-06
 Reference value :  8.76143e-06
 Reference value :  8.80458e-06
 Reference value :  8.88951e-06
 Reference value :  8.94262e-06
 Reference value :  8.97887e-06
 Reference value :  9.00000e-06
 Reference value :  9.00003e-06
 Reference value :  9.00011e-06
 Reference value :  9.00022e-06
 Reference value :  9.00083e-06
 Reference value :  9.00176e-06
 Reference value :  9.00218e-06
 Reference value :  9.00332e-06
 Reference value :  9.00568e-06
 Reference value :  9.00805e-06
 Reference value :  9.01075e-06
 Reference value :  9.01373e-06
 Reference value :  9.01510e-06
 Reference value :  9.01907e-06
 Reference value :  9.02489e-06
 Reference value :  9.05212e-06
 Reference value :  9.20894e-06
 Reference value :  9.25013e-06
 Reference value :  9.25020e-06
 Reference value :  9.25026e-06
 Reference value :  9.25044e-06
 Reference value :  9.25094e-06
 Reference value :  9.25138e-06
 Reference value :  9.25235e-06
 Reference value :  9.25302e-06
 Reference value :  9.25375e-06
 Reference value :  9.25439e-06
 Reference value :  9.25578e-06
 Reference value :  9.25739e-06
 Reference value :  9.25912e-06
 Reference value :  9.26178e-06
 Reference value :  9.27700e-06
 Reference value :  9.31912e-06
 Reference value :  9.50000e-06
 Reference value :  9.50007e-06
 Reference value :  9.50012e-06
 Reference value :  9.50034e-06
 Reference value :  9.50128e-06
 Reference value :  9.50219e-06
 Reference value :  9.50330e-06
 Reference value :  9.50443e-06
 Reference value :  9.50557e-06
 Reference value :  9.50609e-06
 Reference value :  9.50754e-06
 Reference value :  9.50971e-06
 Reference value :  9.51067e-06
 Reference value :  9.51280e-06
 Reference value :  9.51365e-06
 Reference value :  9.51551e-06
 Reference value :  9.51755e-06
 Reference value :  9.51968e-06
 Reference value :  9.52294e-06
 Reference value :  9.53693e-06
 Reference value :  9.57001e-06
 Reference value :  9.63766e-06
 Reference value :  9.66811e-06
 Reference value :  9.68841e-06
 Reference value :  9.70446e-06
 Reference value :  9.73817e-06
 Reference value :  9.75011e-06
 Reference value :  9.75017e-06
 Reference value :  9.75021e-06
 Reference value :  9.75032e-06
 Reference value :  9.75069e-06
 Reference value :  9.75138e-06
 Reference value :  9.75236e-06
 Reference value :  9.75378e-06
 Reference value :  9.75439e-06
 Reference value :  9.75667e-06
 Reference value :  9.76547e-06
 Reference value :  9.84033e-06
 Reference value :  1.00000e-05
 Reference value :  1.00001e-05
 Reference value :  1.00003e-05
 Reference value :  1.00013e-05
 Reference value :  1.00022e-05
 Reference value :  1.00032e-05
 Reference value :  1.00044e-05
 Reference value :  1.00062e-05
 Reference value :  1.00082e-05
 Reference value :  1.00104e-05
 Reference value :  1.00155e-05
 Reference value :  1.01453e-05
 Reference value :  1.02501e-05
 Reference value :  1.02502e-05
 Reference value :  1.02504e-05
 Reference value :  1.02509e-05
 Reference value :  1.02518e-05
 Reference value :  1.02538e-05
 Reference value :  1.02544e-05
 Reference value :  1.02558e-05
 Reference value :  1.02576e-05
 Reference value :  1.02655e-05
 Reference value :  1.03397e-05
 Reference value :  1.05000e-05
 Reference value :  1.05001e-05
 Reference value :  1.05002e-05
 Reference value :  1.05013e-05
 Reference value :  1.05022e-05
 Reference value :  1.05039e-05
 Reference value :  1.05050e-05
 Reference value :  1.05061e-05
 Reference value :  1.05084e-05
 Reference value :  1.05114e-05
 Reference value :  1.05139e-05
 Reference value :  1.05160e-05
 Reference value :  1.05182e-05
 Reference value :  1.05228e-05
 Reference value :  1.05384e-05
 Reference value :  1.05556e-05
 Reference value :  1.05637e-05
 Reference value :  1.05695e-05
 Reference value :  1.05821e-05
 Reference value :  1.06177e-05
 Reference value :  1.07119e-05
 Reference value :  1.07501e-05
 Reference value :  1.07502e-05
 Reference value :  1.07503e-05
 Reference value :  1.07507e-05
 Reference value :  1.07514e-05
 Reference value :  1.07524e-05
 Reference value :  1.07537e-05
 Reference value :  1.07551e-05
 Reference value :  1.07567e-05
 Reference value :  1.07618e-05
 Reference value :  1.08046e-05
 Reference value :  1.10000e-05
 Reference value :  1.10001e-05
 Reference value :  1.10001e-05
 Reference value :  1.10003e-05
 Reference value :  1.10013e-05
 Reference value :  1.10022e-05
 Reference value :  1.10039e-05
 Reference value :  1.10055e-05
 Reference value :  1.10073e-05
 Reference value :  1.10090e-05
 Reference value :  1.10124e-05
 Reference value :  1.10476e-05
 Reference value :  1.12501e-05
 Reference value :  1.12502e-05
 Reference value :  1.12503e-05
 Reference value :  1.12507e-05
 Reference value :  1.12514e-05
 Reference value :  1.12524e-05
 Reference value :  1.12538e-05
 Reference value :  1.12550e-05
 Reference value :  1.12567e-05
 Reference value :  1.12584e-05
 Reference value :  1.12649e-05
 Reference value :  1.13488e-05
 Reference value :  1.15000e-05
 Reference value :  1.15001e-05
 Reference value :  1.15005e-05
 Reference value :  1.15018e-05
 Reference value :  1.15033e-05
 Reference value :  1.15044e-05
 Reference value :  1.15056e-05
 Reference value :  1.15067e-05
 Reference value :  1.15084e-05
 Reference value :  1.15107e-05
 Reference value :  1.15137e-05
 Reference value :  1.15165e-05
 Reference value :  1.15197e-05
 Reference value :  1.15261e-05
 Reference value :  1.15537e-05
 Reference value :  1.15615e-05
 Reference value :  1.15681e-05
 Reference value :  1.15708e-05
 Reference value :  1.15764e-05
 Reference value :  1.15929e-05
 Reference value :  1.16247e-05
 Reference value :  1.17422e-05
 Reference value :  1.17501e-05
 Reference value :  1.17502e-05
 Reference value :  1.17503e-05
 Reference value :  1.17514e-05
 Reference value :  1.17530e-05
 Reference value :  1.17544e-05
 Reference value :  1.17567e-05
 Reference value :  1.17592e-05
 Reference value :  1.17839e-05
 Reference value :  1.20000e-05
 Reference value :  1.20001e-05
 Reference value :  1.20001e-05
 Reference value :  1.20003e-05
 Reference value :  1.20013e-05
 Reference value :  1.20022e-05
 Reference value :  1.20032e-05
 Reference value :  1.20044e-05
 Reference value :  1.20062e-05
 Reference value :  1.20082e-05
 Reference value :  1.20093e-05
 Reference value :  1.20116e-05
 Reference value :  1.20205e-05
 Reference value :  1.20786e-05
 Reference value :  1.22501e-05
 Reference value :  1.22502e-05
 Reference value :  1.22503e-05
 Reference value :  1.22507e-05
 Reference value :  1.22514e-05
 Reference value :  1.22530e-05
 Reference value :  1.22544e-05
 Reference value :  1.22567e-05
 Reference value :  1.22614e-05
 Reference value :  1.22839e-05
 Reference value :  1.24054e-05
 Reference value :  1.25000e-05
 Reference value :  1.25001e-05
 Reference value :  1.25002e-05
 Reference value :  1.25003e-05
 Reference value :  1.25013e-05
 Reference value :  1.25022e-05
 Reference value :  1.25033e-05
 Reference value :  1.25044e-05
 Reference value :  1.25056e-05
 Reference value :  1.25067e-05
 Reference value :  1.25100e-05
 Reference value :  1.25128e-05
 Reference value :  1.25149e-05
 Reference value :  1.25171e-05
 Reference value :  1.25211e-05
 Reference value :  1.25307e-05
 Reference value :  1.25384e-05
 Reference value :  1.25440e-05
 Reference value :  1.25562e-05
 Reference value :  1.25724e-05
 Reference value :  1.26265e-05
 Reference value :  1.27501e-05
 Reference value :  1.27502e-05
 Reference value :  1.27502e-05
 Reference value :  1.27504e-05
 Reference value :  1.27509e-05
 Reference value :  1.27514e-05
 Reference value :  1.27524e-05
 Reference value :  1.27537e-05
 Reference value :  1.27551e-05
 Reference value :  1.27567e-05
 Reference value :  1.27618e-05
 Reference value :  1.27846e-05
 Reference value :  1.29006e-05
 Reference value :  1.30000e-05
 Reference value :  1.30001e-05
 Reference value :  1.30002e-05
 Reference value :  1.30008e-05
 Reference value :  1.30018e-05
 Reference value :  1.30026e-05
 Reference value :  1.30039e-05
 Reference value :  1.30055e-05
 Reference value :  1.30073e-05
 Reference value :  1.30090e-05
 Reference value :  1.30124e-05
 Reference value :  1.30476e-05
 Reference value :  1.32501e-05
 Reference value :  1.32502e-05
 Reference value :  1.32504e-05
 Reference value :  1.32514e-05
 Reference value :  1.32530e-05
 Reference value :  1.32544e-05
 Reference value :  1.32567e-05
 Reference value :  1.32584e-05
 Reference value :  1.32621e-05
 Reference value :  1.32874e-05
 Reference value :  1.35000e-05
 Reference value :  1.35001e-05
 Reference value :  1.35002e-05
 Reference value :  1.35008e-05
 Reference value :  1.35018e-05
 Reference value :  1.35027e-05
 Reference value :  1.35039e-05
 Reference value :  1.35050e-05
 Reference value :  1.35056e-05
 Reference value :  1.35067e-05
 Reference value :  1.35097e-05
 Reference value :  1.35107e-05
 Reference value :  1.35117e-05
 Reference value :  1.35137e-05
 Reference value :  1.35156e-05
 Reference value :  1.35176e-05
 Reference value :  1.35200e-05
 Reference value :  1.35277e-05
 Reference value :  1.35410e-05
 Reference value :  1.35470e-05
 Reference value :  1.35568e-05
 Reference value :  1.35766e-05
 Reference value :  1.36402e-05
 Reference value :  1.36753e-05
 Reference value :  1.37501e-05
 Reference value :  1.37501e-05
 Reference value :  1.37502e-05
 Reference value :  1.37503e-05
 Reference value :  1.37509e-05
 Reference value :  1.37518e-05
 Reference value :  1.37530e-05
 Reference value :  1.37544e-05
 Reference value :  1.37557e-05
 Reference value :  1.37576e-05
 Reference value :  1.37653e-05
 Reference value :  1.38042e-05
 Reference value :  1.40000e-05
 Reference value :  1.40001e-05
 Reference value :  1.40001e-05
 Reference value :  1.40003e-05
 Reference value :  1.40013e-05
 Reference value :  1.40022e-05
 Reference value :  1.40039e-05
 Reference value :  1.40055e-05
 Reference value :  1.40073e-05
 Reference value :  1.40090e-05
 Reference value :  1.40124e-05
 Reference value :  1.40851e-05
 Reference value :  1.42501e-05
 Reference value :  1.42502e-05
 Reference value :  1.42507e-05
 Reference value :  1.42514e-05
 Reference value :  1.42524e-05
 Reference value :  1.42538e-05
 Reference value :  1.42550e-05
 Reference value :  1.42567e-05
 Reference value :  1.42584e-05
 Reference value :  1.42621e-05
 Reference value :  1.42752e-05
 Reference value :  1.43476e-05
 Reference value :  1.45000e-05
 Reference value :  1.45001e-05
 Reference value :  1.45002e-05
 Reference value :  1.45005e-05
 Reference value :  1.45013e-05
 Reference value :  1.45022e-05
 Reference value :  1.45039e-05
 Reference value :  1.45050e-05
 Reference value :  1.45056e-05
 Reference value :  1.45067e-05
 Reference value :  1.45097e-05
 Reference value :  1.45107e-05
 Reference value :  1.45129e-05
 Reference value :  1.45145e-05
 Reference value :  1.45162e-05
 Reference value :  1.45193e-05
 Reference value :  1.45254e-05
 Reference value :  1.45441e-05
 Reference value :  1.46039e-05
 Reference value :  1.47501e-05
 Reference value :  1.47501e-05
 Reference value :  1.47502e-05
 Reference value :  1.47503e-05
 Reference value :  1.47509e-05
 Reference value :  1.47514e-05
 Reference value :  1.47524e-05
 Reference value :  1.47538e-05
 Reference value :  1.47550e-05
 Reference value :  1.47566e-05
 Reference value :  1.47591e-05
 Reference value :  1.47723e-05
 Reference value :  1.48391e-05
 Reference value :  1.50000e-05
 Reference value :  1.50001e-05
 Reference value :  1.50002e-05
 Reference value :  1.50005e-05
 Reference value :  1.50013e-05
 Reference value :  1.50022e-05
 Reference value :  1.50033e-05
 Reference value :  1.50039e-05
 Reference value :  1.50047e-05
 Reference value :  1.50066e-05
 Reference value :  1.50073e-05
 Reference value :  1.50090e-05
 Reference value :  1.50112e-05
 Reference value :  1.50149e-05
 Reference value :  1.50289e-05
 Reference value :  1.50848e-05
 Reference value :  1.52501e-05
 Reference value :  1.52501e-05
 Reference value :  1.52502e-05
 Reference value :  1.52503e-05
 Reference value :  1.52507e-05
 Reference value :  1.52514e-05
 Reference value :  1.52524e-05
 Reference value :  1.52538e-05
 Reference value :  1.52544e-05
 Reference value :  1.52558e-05
 Reference value :  1.52576e-05
 Reference value :  1.52593e-05
 Reference value :  1.52648e-05
 Reference value :  1.52873e-05
 Reference value :  1.55000e-05
 Reference value :  1.55013e-05
 Reference value :  1.55038e-05
 Reference value :  1.55051e-05
 Reference value :  1.55073e-05
 Reference value :  1.55094e-05
 Reference value :  1.55103e-05
 Reference value :  1.55122e-05
 Reference value :  1.55140e-05
 Reference value :  1.55156e-05
 Reference value :  1.55172e-05
 Reference value :  1.55191e-05
 Reference value :  1.55220e-05
 Reference value :  1.55347e-05
 Reference value :  1.55953e-05
 Reference value :  1.57501e-05
 Reference value :  1.57502e-05
 Reference value :  1.57503e-05
 Reference value :  1.57514e-05
 Reference value :  1.57524e-05
 Reference value :  1.57543e-05
 Reference value :  1.57566e-05
 Reference value :  1.57650e-05
 Reference value :  1.58378e-05
 Reference value :  1.60000e-05
 Reference value :  1.60001e-05
 Reference value :  1.60003e-05
 Reference value :  1.60013e-05
 Reference value :  1.60026e-05
 Reference value :  1.60047e-05
 Reference value :  1.60066e-05
 Reference value :  1.60073e-05
 Reference value :  1.60090e-05
 Reference value :  1.60112e-05
 Reference value :  1.60289e-05
 Reference value :  1.61595e-05
 Reference value :  1.62501e-05
 Reference value :  1.62502e-05
 Reference value :  1.62502e-05
 Reference value :  1.62504e-05
 Reference value :  1.62509e-05
 Reference value :  1.62514e-05
 Reference value :  1.62523e-05
 Reference value :  1.62538e-05
 Reference value :  1.62550e-05
 Reference value :  1.62567e-05
 Reference value :  1.62584e-05
 Reference value :  1.62621e-05
 Reference value :  1.62752e-05
 Reference value :  1.63476e-05
 Reference value :  1.65000e-05
 Reference value :  1.65001e-05
 Reference value :  1.65002e-05
 Reference value :  1.65005e-05
 Reference value :  1.65013e-05
 Reference value :  1.65022e-05
 Reference value :  1.65033e-05
 Reference value :  1.65044e-05
 Reference value :  1.65056e-05
 Reference value :  1.65067e-05
 Reference value :  1.65084e-05
 Reference value :  1.65100e-05
 Reference value :  1.65118e-05
 Reference value :  1.65163e-05
 Reference value :  1.65254e-05
 Reference value :  1.65390e-05
 Reference value :  1.65547e-05
 Reference value :  1.65695e-05
 Reference value :  1.65897e-05
 Reference value :  1.66354e-05
 Reference value :  1.67501e-05
 Reference value :  1.67501e-05
 Reference value :  1.67502e-05
 Reference value :  1.67503e-05
 Reference value :  1.67507e-05
 Reference value :  1.67514e-05
 Reference value :  1.67524e-05
 Reference value :  1.67539e-05
 Reference value :  1.67566e-05
 Reference value :  1.67592e-05
 Reference value :  1.67712e-05
 Reference value :  1.68255e-05
 Reference value :  1.70000e-05
 Reference value :  1.70000e-05
 Reference value :  1.70000e-05
 Reference value :  1.70000e-05
 Reference value :  1.70000e-05
 Reference value :  1.70001e-05
 Reference value :  1.70001e-05
 Reference value :  1.70003e-05
 Reference value :  1.70008e-05
 Reference value :  1.70017e-05
 Reference value :  1.70022e-05
 Reference value :  1.70033e-05
 Reference value :  1.70047e-05
 Reference value :  1.70054e-05
 Reference value :  1.70068e-05
 Reference value :  1.70109e-05
 Reference value :  1.70208e-05
 Reference value :  1.70270e-05
 Reference value :  1.70314e-05
 Reference value :  1.70349e-05
 Reference value :  1.70373e-05
 Reference value :  1.70424e-05
 Reference value :  1.70462e-05
 Reference value :  1.70521e-05
 Reference value :  1.70583e-05
 Reference value :  1.70664e-05
 Reference value :  1.71022e-05
 Reference value :  1.71777e-05
 Reference value :  1.72501e-05
 Reference value :  1.72502e-05
 Reference value :  1.72502e-05
 Reference value :  1.72504e-05
 Reference value :  1.72514e-05
 Reference value :  1.72524e-05
 Reference value :  1.72538e-05
 Reference value :  1.72544e-05
 Reference value :  1.72557e-05
 Reference value :  1.72577e-05
 Reference value :  1.72657e-05
 Reference value :  1.73045e-05
 Reference value :  1.73924e-05
 Reference value :  1.74433e-05
 Reference value :  1.74785e-05
 Reference value :  1.74956e-05
 Reference value :  1.75000e-05
 Reference value :  1.75001e-05
 Reference value :  1.75001e-05
 Reference value :  1.75002e-05
 Reference value :  1.75005e-05
 Reference value :  1.75013e-05
 Reference value :  1.75022e-05
 Reference value :  1.75033e-05
 Reference value :  1.75048e-05
 Reference value :  1.75068e-05
 Reference value :  1.75081e-05
 Reference value :  1.75108e-05
 Reference value :  1.75137e-05
 Reference value :  1.75151e-05
 Reference value :  1.75191e-05
 Reference value :  1.75306e-05
 Reference value :  1.75521e-05
 Reference value :  1.77095e-05
 Reference value :  1.77501e-05
 Reference value :  1.77502e-05
 Reference value :  1.77503e-05
 Reference value :  1.77504e-05
 Reference value :  1.77514e-05
 Reference value :  1.77530e-05
 Reference value :  1.77544e-05
 Reference value :  1.77566e-05
 Reference value :  1.77582e-05
 Reference value :  1.77618e-05
 Reference value :  1.77709e-05
 Reference value :  1.77993e-05
 Reference value :  1.79036e-05
 Reference value :  1.80017e-05
 Reference value :  1.80068e-05
 Reference value :  1.80097e-05
 Reference value :  1.80120e-05
 Reference value :  1.80139e-05
 Reference value :  1.80169e-05
 Reference value :  1.80206e-05
 Reference value :  1.80538e-05
 Reference value :  1.81253e-05
 Reference value :  1.81583e-05
 Reference value :  1.81824e-05
 Reference value :  1.82140e-05
 Reference value :  1.82501e-05
 Reference value :  1.82502e-05
 Reference value :  1.82507e-05
 Reference value :  1.82519e-05
 Reference value :  1.82538e-05
 Reference value :  1.82550e-05
 Reference value :  1.82575e-05
 Reference value :  1.82835e-05
 Reference value :  1.85000e-05
 Reference value :  1.85001e-05
 Reference value :  1.85001e-05
 Reference value :  1.85003e-05
 Reference value :  1.85013e-05
 Reference value :  1.85022e-05
 Reference value :  1.85032e-05
 Reference value :  1.85044e-05
 Reference value :  1.85072e-05
 Reference value :  1.85093e-05
 Reference value :  1.85129e-05
 Reference value :  1.85444e-05
 Reference value :  1.87501e-05
 Reference value :  1.87502e-05
 Reference value :  1.87504e-05
 Reference value :  1.87514e-05
 Reference value :  1.87524e-05
 Reference value :  1.87538e-05
 Reference value :  1.87551e-05
 Reference value :  1.87576e-05
 Reference value :  1.87726e-05
 Reference value :  1.89053e-05
 Reference value :  1.90000e-05
 Reference value :  1.90001e-05
 Reference value :  1.90003e-05
 Reference value :  1.90013e-05
 Reference value :  1.90022e-05
 Reference value :  1.90033e-05
 Reference value :  1.90044e-05
 Reference value :  1.90056e-05
 Reference value :  1.90067e-05
 Reference value :  1.90100e-05
 Reference value :  1.90128e-05
 Reference value :  1.90149e-05
 Reference value :  1.90171e-05
 Reference value :  1.90211e-05
 Reference value :  1.90384e-05
 Reference value :  1.90668e-05
 Reference value :  1.90811e-05
 Reference value :  1.91006e-05
 Reference value :  1.92450e-05
 Reference value :  1.92502e-05
 Reference value :  1.92503e-05
 Reference value :  1.92507e-05
 Reference value :  1.92514e-05
 Reference value :  1.92530e-05
 Reference value :  1.92551e-05
 Reference value :  1.92567e-05
 Reference value :  1.92618e-05
 Reference value :  1.92845e-05
 Reference value :  1.94006e-05
 Reference value :  1.95018e-05
 Reference value :  1.95055e-05
 Reference value :  1.95074e-05
 Reference value :  1.95108e-05
 Reference value :  1.95145e-05
 Reference value :  1.95314e-05
 Reference value :  1.96526e-05
 Reference value :  1.97501e-05
 Reference value :  1.97502e-05
 Reference value :  1.97507e-05
 Reference value :  1.97514e-05
 Reference value :  1.97524e-05
 Reference value :  1.97542e-05
 Reference value :  1.97562e-05
 Reference value :  1.97580e-05
 Reference value :  1.97621e-05
 Reference value :  1.97824e-05
 Reference value :  1.99549e-05
 Reference value :  2.00000e-05
 Reference value :  2.00001e-05
 Reference value :  2.00002e-05
 Reference value :  2.00008e-05
 Reference value :  2.00022e-05
 Reference value :  2.00033e-05
 Reference value :  2.00044e-05
 Reference value :  2.00056e-05
 Reference value :  2.00067e-05
 Reference value :  2.00097e-05
 Reference value :  2.00107e-05
 Reference value :  2.00137e-05
 Reference value :  2.00154e-05
 Reference value :  2.00174e-05
 Reference value :  2.00195e-05
 Reference value :  2.00255e-05
 Reference value :  2.00428e-05
 Reference value :  2.00612e-05
 Reference value :  2.00682e-05
 Reference value :  2.00712e-05
 Reference value :  2.00740e-05
 Reference value :  2.00815e-05
 Reference value :  2.00918e-05
 Reference value :  2.01259e-05
 Reference value :  2.01835e-05
 Reference value :  2.02501e-05
 Reference value :  2.02502e-05
 Reference value :  2.02502e-05
 Reference value :  2.02503e-05
 Reference value :  2.02504e-05
 Reference value :  2.02509e-05
 Reference value :  2.02514e-05
 Reference value :  2.02524e-05
 Reference value :  2.02538e-05
 Reference value :  2.02544e-05
 Reference value :  2.02567e-05
 Reference value :  2.02592e-05
 Reference value :  2.02839e-05
 Reference value :  2.04069e-05
 Reference value :  2.05018e-05
 Reference value :  2.05053e-05
 Reference value :  2.05071e-05
 Reference value :  2.05103e-05
 Reference value :  2.05133e-05
 Reference value :  2.05215e-05
 Reference value :  2.05833e-05
 Reference value :  2.07501e-05
 Reference value :  2.07502e-05
 Reference value :  2.07503e-05
 Reference value :  2.07507e-05
 Reference value :  2.07514e-05
 Reference value :  2.07524e-05
 Reference value :  2.07537e-05
 Reference value :  2.07542e-05
 Reference value :  2.07555e-05
 Reference value :  2.07573e-05
 Reference value :  2.07608e-05
 Reference value :  2.07797e-05
 Reference value :  2.08866e-05
 Reference value :  2.10000e-05
 Reference value :  2.10001e-05
 Reference value :  2.10002e-05
 Reference value :  2.10005e-05
 Reference value :  2.10013e-05
 Reference value :  2.10022e-05
 Reference value :  2.10033e-05
 Reference value :  2.10044e-05
 Reference value :  2.10056e-05
 Reference value :  2.10061e-05
 Reference value :  2.10076e-05
 Reference value :  2.10100e-05
 Reference value :  2.10128e-05
 Reference value :  2.10139e-05
 Reference value :  2.10160e-05
 Reference value :  2.10171e-05
 Reference value :  2.10194e-05
 Reference value :  2.10261e-05
 Reference value :  2.10345e-05
 Reference value :  2.10427e-05
 Reference value :  2.10499e-05
 Reference value :  2.10588e-05
 Reference value :  2.10766e-05
 Reference value :  2.11400e-05
 Reference value :  2.12501e-05
 Reference value :  2.12502e-05
 Reference value :  2.12503e-05
 Reference value :  2.12504e-05
 Reference value :  2.12509e-05
 Reference value :  2.12514e-05
 Reference value :  2.12524e-05
 Reference value :  2.12537e-05
 Reference value :  2.12551e-05
 Reference value :  2.12567e-05
 Reference value :  2.12618e-05
 Reference value :  2.12846e-05
 Reference value :  2.14007e-05
 Reference value :  2.15000e-05
 Reference value :  2.15001e-05
 Reference value :  2.15002e-05
 Reference value :  2.15003e-05
 Reference value :  2.15008e-05
 Reference value :  2.15013e-05
 Reference value :  2.15022e-05
 Reference value :  2.15033e-05
 Reference value :  2.15039e-05
 Reference value :  2.15055e-05
 Reference value :  2.15073e-05
 Reference value :  2.15090e-05
 Reference value :  2.15112e-05
 Reference value :  2.15289e-05
 Reference value :  2.16598e-05
 Reference value :  2.17501e-05
 Reference value :  2.17502e-05
 Reference value :  2.17503e-05
 Reference value :  2.17507e-05
 Reference value :  2.17514e-05
 Reference value :  2.17524e-05
 Reference value :  2.17538e-05
 Reference value :  2.17544e-05
 Reference value :  2.17567e-05
 Reference value :  2.17584e-05
 Reference value :  2.17621e-05
 Reference value :  2.17752e-05
 Reference value :  2.18484e-05
 Reference value :  2.20012e-05
 Reference value :  2.20050e-05
 Reference value :  2.20072e-05
 Reference value :  2.20093e-05
 Reference value :  2.20102e-05
 Reference value :  2.20122e-05
 Reference value :  2.20141e-05
 Reference value :  2.20158e-05
 Reference value :  2.20178e-05
 Reference value :  2.20200e-05
 Reference value :  2.20234e-05
 Reference value :  2.20383e-05
 Reference value :  2.20498e-05
 Reference value :  2.20622e-05
 Reference value :  2.20841e-05
 Reference value :  2.21381e-05
 Reference value :  2.21700e-05
 Reference value :  2.22501e-05
 Reference value :  2.22502e-05
 Reference value :  2.22502e-05
 Reference value :  2.22503e-05
 Reference value :  2.22507e-05
 Reference value :  2.22514e-05
 Reference value :  2.22524e-05
 Reference value :  2.22543e-05
 Reference value :  2.22566e-05
 Reference value :  2.22613e-05
 Reference value :  2.23034e-05
 Reference value :  2.25000e-05
 Reference value :  2.25001e-05
 Reference value :  2.25002e-05
 Reference value :  2.25005e-05
 Reference value :  2.25013e-05
 Reference value :  2.25022e-05
 Reference value :  2.25033e-05
 Reference value :  2.25047e-05
 Reference value :  2.25066e-05
 Reference value :  2.25073e-05
 Reference value :  2.25082e-05
 Reference value :  2.25090e-05
 Reference value :  2.25112e-05
 Reference value :  2.25196e-05
 Reference value :  2.25844e-05
 Reference value :  2.27501e-05
 Reference value :  2.27502e-05
 Reference value :  2.27503e-05
 Reference value :  2.27504e-05
 Reference value :  2.27514e-05
 Reference value :  2.27524e-05
 Reference value :  2.27538e-05
 Reference value :  2.27544e-05
 Reference value :  2.27558e-05
 Reference value :  2.27576e-05
 Reference value :  2.27584e-05
 Reference value :  2.27621e-05
 Reference value :  2.27752e-05
 Reference value :  2.28480e-05
 Reference value :  2.30013e-05
 Reference value :  2.30051e-05
 Reference value :  2.30073e-05
 Reference value :  2.30094e-05
 Reference value :  2.30103e-05
 Reference value :  2.30122e-05
 Reference value :  2.30140e-05
 Reference value :  2.30156e-05
 Reference value :  2.30174e-05
 Reference value :  2.30209e-05
 Reference value :  2.30308e-05
 Reference value :  2.30541e-05
 Reference value :  2.31480e-05
 Reference value :  2.32501e-05
 Reference value :  2.32502e-05
 Reference value :  2.32503e-05
 Reference value :  2.32507e-05
 Reference value :  2.32514e-05
 Reference value :  2.32524e-05
 Reference value :  2.32537e-05
 Reference value :  2.32550e-05
 Reference value :  2.32566e-05
 Reference value :  2.32590e-05
 Reference value :  2.32831e-05
 Reference value :  2.33980e-05
 Reference value :  2.35000e-05
 Reference value :  2.35001e-05
 Reference value :  2.35002e-05
 Reference value :  2.35008e-05
 Reference value :  2.35013e-05
 Reference value :  2.35022e-05
 Reference value :  2.35033e-05
 Reference value :  2.35039e-05
 Reference value :  2.35047e-05
 Reference value :  2.35066e-05
 Reference value :  2.35073e-05
 Reference value :  2.35090e-05
 Reference value :  2.35124e-05
 Reference value :  2.35475e-05
 Reference value :  2.37501e-05
 Reference value :  2.37502e-05
 Reference value :  2.37503e-05
 Reference value :  2.37509e-05
 Reference value :  2.37518e-05
 Reference value :  2.37538e-05
 Reference value :  2.37550e-05
 Reference value :  2.37567e-05
 Reference value :  2.37584e-05
 Reference value :  2.37621e-05
 Reference value :  2.37873e-05
 Reference value :  2.39241e-05
 Reference value :  2.40000e-05
 Reference value :  2.40001e-05
 Reference value :  2.40002e-05
 Reference value :  2.40003e-05
 Reference value :  2.40013e-05
 Reference value :  2.40022e-05
 Reference value :  2.40033e-05
 Reference value :  2.40044e-05
 Reference value :  2.40056e-05
 Reference value :  2.40061e-05
 Reference value :  2.40076e-05
 Reference value :  2.40097e-05
 Reference value :  2.40107e-05
 Reference value :  2.40118e-05
 Reference value :  2.40137e-05
 Reference value :  2.40155e-05
 Reference value :  2.40176e-05
 Reference value :  2.40200e-05
 Reference value :  2.40276e-05
 Reference value :  2.40874e-05
 Reference value :  2.42501e-05
 Reference value :  2.42502e-05
 Reference value :  2.42502e-05
 Reference value :  2.42504e-05
 Reference value :  2.42514e-05
 Reference value :  2.42530e-05
 Reference value :  2.42544e-05
 Reference value :  2.42557e-05
 Reference value :  2.42591e-05
 Reference value :  2.42836e-05
 Reference value :  2.45000e-05
 Reference value :  2.45001e-05
 Reference value :  2.45001e-05
 Reference value :  2.45003e-05
 Reference value :  2.45008e-05
 Reference value :  2.45013e-05
 Reference value :  2.45022e-05
 Reference value :  2.45039e-05
 Reference value :  2.45055e-05
 Reference value :  2.45073e-05
 Reference value :  2.45090e-05
 Reference value :  2.45112e-05
 Reference value :  2.45195e-05
 Reference value :  2.45477e-05
 Reference value :  2.47501e-05
 Reference value :  2.47502e-05
 Reference value :  2.47502e-05
 Reference value :  2.47504e-05
 Reference value :  2.47509e-05
 Reference value :  2.47514e-05
 Reference value :  2.47523e-05
 Reference value :  2.47538e-05
 Reference value :  2.47544e-05
 Reference value :  2.47558e-05
 Reference value :  2.47576e-05
 Reference value :  2.47584e-05
 Reference value :  2.47607e-05
 Reference value :  2.47648e-05
 Reference value :  2.47871e-05
 Reference value :  2.49219e-05
 Reference value :  2.50000e-05
 Reference value :  2.50001e-05
 Reference value :  2.50002e-05
 Reference value :  2.50008e-05
 Reference value :  2.50018e-05
 Reference value :  2.50022e-05
 Reference value :  2.50033e-05
 Reference value :  2.50044e-05
 Reference value :  2.50056e-05
 Reference value :  2.50061e-05
 Reference value :  2.50076e-05
 Reference value :  2.50093e-05
 Reference value :  2.50100e-05
 Reference value :  2.50118e-05
 Reference value :  2.50148e-05
 Reference value :  2.50164e-05
 Reference value :  2.50209e-05
 Reference value :  2.50246e-05
 Reference value :  2.50329e-05
 Reference value :  2.50411e-05
 Reference value :  2.50545e-05
 Reference value :  2.50617e-05
 Reference value :  2.50865e-05
 Reference value :  2.52501e-05
 Reference value :  2.52502e-05
 Reference value :  2.52504e-05
 Reference value :  2.52514e-05
 Reference value :  2.52530e-05
 Reference value :  2.52548e-05
 Reference value :  2.52592e-05
 Reference value :  2.52806e-05
 Reference value :  2.55000e-05
 Reference value :  2.55000e-05
 Reference value :  2.55000e-05
 Reference value :  2.55000e-05
 Reference value :  2.55001e-05
 Reference value :  2.55004e-05
 Reference value :  2.55017e-05
 Reference value :  2.55033e-05
 Reference value :  2.55054e-05
 Reference value :  2.55068e-05
 Reference value :  2.55142e-05
 Reference value :  2.55270e-05
 Reference value :  2.55314e-05
 Reference value :  2.55373e-05
 Reference value :  2.55422e-05
 Reference value :  2.55469e-05
 Reference value :  2.55572e-05
 Reference value :  2.55737e-05
 Reference value :  2.56488e-05
 Reference value :  2.57501e-05
 Reference value :  2.57502e-05
 Reference value :  2.57504e-05
 Reference value :  2.57514e-05
 Reference value :  2.57530e-05
 Reference value :  2.57544e-05
 Reference value :  2.57567e-05
 Reference value :  2.57725e-05
 Reference value :  2.58936e-05
 Reference value :  2.59467e-05
 Reference value :  2.59833e-05
 Reference value :  2.60000e-05
 Reference value :  2.60001e-05
 Reference value :  2.60005e-05
 Reference value :  2.60018e-05
 Reference value :  2.60033e-05
 Reference value :  2.60057e-05
 Reference value :  2.60081e-05
 Reference value :  2.60121e-05
 Reference value :  2.60151e-05
 Reference value :  2.60209e-05
 Reference value :  2.60517e-05
 Reference value :  2.62501e-05
 Reference value :  2.62502e-05
 Reference value :  2.62503e-05
 Reference value :  2.62509e-05
 Reference value :  2.62518e-05
 Reference value :  2.62538e-05
 Reference value :  2.62551e-05
 Reference value :  2.62566e-05
 Reference value :  2.62582e-05
 Reference value :  2.62618e-05
 Reference value :  2.62709e-05
 Reference value :  2.62995e-05
 Reference value :  2.64064e-05
 Reference value :  2.65016e-05
 Reference value :  2.65049e-05
 Reference value :  2.65066e-05
 Reference value :  2.65095e-05
 Reference value :  2.65106e-05
 Reference value :  2.65130e-05
 Reference value :  2.65138e-05
 Reference value :  2.65158e-05
 Reference value :  2.65178e-05
 Reference value :  2.65221e-05
 Reference value :  2.65380e-05
 Reference value :  2.66274e-05
 Reference value :  2.66554e-05
 Reference value :  2.66777e-05
 Reference value :  2.66920e-05
 Reference value :  2.67191e-05
 Reference value :  2.67474e-05
 Reference value :  2.67501e-05
 Reference value :  2.67502e-05
 Reference value :  2.67504e-05
 Reference value :  2.67514e-05
 Reference value :  2.67524e-05
 Reference value :  2.67538e-05
 Reference value :  2.67544e-05
 Reference value :  2.67557e-05
 Reference value :  2.67576e-05
 Reference value :  2.67654e-05
 Reference value :  2.68045e-05
 Reference value :  2.70000e-05
 Reference value :  2.70001e-05
 Reference value :  2.70001e-05
 Reference value :  2.70002e-05
 Reference value :  2.70005e-05
 Reference value :  2.70013e-05
 Reference value :  2.70022e-05
 Reference value :  2.70032e-05
 Reference value :  2.70044e-05
 Reference value :  2.70062e-05
 Reference value :  2.70082e-05
 Reference value :  2.70104e-05
 Reference value :  2.70155e-05
 Reference value :  2.70778e-05
 Reference value :  2.72501e-05
 Reference value :  2.72503e-05
 Reference value :  2.72509e-05
 Reference value :  2.72514e-05
 Reference value :  2.72524e-05
 Reference value :  2.72538e-05
 Reference value :  2.72551e-05
 Reference value :  2.72567e-05
 Reference value :  2.72614e-05
 Reference value :  2.72839e-05
 Reference value :  2.74053e-05
 Reference value :  2.75000e-05
 Reference value :  2.75001e-05
 Reference value :  2.75002e-05
 Reference value :  2.75005e-05
 Reference value :  2.75013e-05
 Reference value :  2.75022e-05
 Reference value :  2.75033e-05
 Reference value :  2.75044e-05
 Reference value :  2.75056e-05
 Reference value :  2.75067e-05
 Reference value :  2.75100e-05
 Reference value :  2.75128e-05
 Reference value :  2.75149e-05
 Reference value :  2.75171e-05
 Reference value :  2.75211e-05
 Reference value :  2.75384e-05
 Reference value :  2.75478e-05
 Reference value :  2.75651e-05
 Reference value :  2.75772e-05
 Reference value :  2.75899e-05
 Reference value :  2.76167e-05
 Reference value :  2.77473e-05
 Reference value :  2.77501e-05
 Reference value :  2.77502e-05
 Reference value :  2.77503e-05
 Reference value :  2.77509e-05
 Reference value :  2.77518e-05
 Reference value :  2.77530e-05
 Reference value :  2.77544e-05
 Reference value :  2.77558e-05
 Reference value :  2.77579e-05
 Reference value :  2.77660e-05
 Reference value :  2.78045e-05
 Reference value :  2.80018e-05
 Reference value :  2.80055e-05
 Reference value :  2.80074e-05
 Reference value :  2.80108e-05
 Reference value :  2.80145e-05
 Reference value :  2.80243e-05
 Reference value :  2.80599e-05
 Reference value :  2.82501e-05
 Reference value :  2.82502e-05
 Reference value :  2.82502e-05
 Reference value :  2.82504e-05
 Reference value :  2.82514e-05
 Reference value :  2.82524e-05
 Reference value :  2.82542e-05
 Reference value :  2.82555e-05
 Reference value :  2.82571e-05
 Reference value :  2.82591e-05
 Reference value :  2.82638e-05
 Reference value :  2.82998e-05
 Reference value :  2.84550e-05
 Reference value :  2.85000e-05
 Reference value :  2.85001e-05
 Reference value :  2.85002e-05
 Reference value :  2.85005e-05
 Reference value :  2.85013e-05
 Reference value :  2.85022e-05
 Reference value :  2.85033e-05
 Reference value :  2.85044e-05
 Reference value :  2.85056e-05
 Reference value :  2.85067e-05
 Reference value :  2.85097e-05
 Reference value :  2.85107e-05
 Reference value :  2.85129e-05
 Reference value :  2.85145e-05
 Reference value :  2.85164e-05
 Reference value :  2.85185e-05
 Reference value :  2.85210e-05
 Reference value :  2.85297e-05
 Reference value :  2.85538e-05
 Reference value :  2.85620e-05
 Reference value :  2.85686e-05
 Reference value :  2.85790e-05
 Reference value :  2.86027e-05
 Reference value :  2.86735e-05
 Reference value :  2.87501e-05
 Reference value :  2.87502e-05
 Reference value :  2.87503e-05
 Reference value :  2.87509e-05
 Reference value :  2.87518e-05
 Reference value :  2.87538e-05
 Reference value :  2.87550e-05
 Reference value :  2.87576e-05
 Reference value :  2.87725e-05
 Reference value :  2.89069e-05
 Reference value :  2.90018e-05
 Reference value :  2.90053e-05
 Reference value :  2.90071e-05
 Reference value :  2.90103e-05
 Reference value :  2.90133e-05
 Reference value :  2.90215e-05
 Reference value :  2.90550e-05
 Reference value :  2.92087e-05
 Reference value :  2.92501e-05
 Reference value :  2.92502e-05
 Reference value :  2.92503e-05
 Reference value :  2.92509e-05
 Reference value :  2.92519e-05
 Reference value :  2.92537e-05
 Reference value :  2.92548e-05
 Reference value :  2.92573e-05
 Reference value :  2.92637e-05
 Reference value :  2.93299e-05
 Reference value :  2.95000e-05
 Reference value :  2.95001e-05
 Reference value :  2.95002e-05
 Reference value :  2.95005e-05
 Reference value :  2.95013e-05
 Reference value :  2.95022e-05
 Reference value :  2.95033e-05
 Reference value :  2.95044e-05
 Reference value :  2.95056e-05
 Reference value :  2.95067e-05
 Reference value :  2.95100e-05
 Reference value :  2.95128e-05
 Reference value :  2.95149e-05
 Reference value :  2.95171e-05
 Reference value :  2.95211e-05
 Reference value :  2.95297e-05
 Reference value :  2.95393e-05
 Reference value :  2.95425e-05
 Reference value :  2.95485e-05
 Reference value :  2.95621e-05
 Reference value :  2.95953e-05
 Reference value :  2.97501e-05
 Reference value :  2.97502e-05
 Reference value :  2.97502e-05
 Reference value :  2.97504e-05
 Reference value :  2.97514e-05
 Reference value :  2.97530e-05
 Reference value :  2.97551e-05
 Reference value :  2.97660e-05
 Reference value :  3.00000e-05
 Reference value :  3.00001e-05
 Reference value :  3.00003e-05
 Reference value :  3.00013e-05
 Reference value :  3.00026e-05
 Reference value :  3.00039e-05
 Reference value :  3.00055e-05
 Reference value :  3.00073e-05
 Reference value :  3.00090e-05
 Reference value :  3.00112e-05
 Reference value :  3.00148e-05
 Reference value :  3.00289e-05
 Reference value :  3.01597e-05
 Reference value :  3.02501e-05
 Reference value :  3.02502e-05
 Reference value :  3.02503e-05
 Reference value :  3.02509e-05
 Reference value :  3.02518e-05
 Reference value :  3.02538e-05
 Reference value :  3.02558e-05
 Reference value :  3.02584e-05
 Reference value :  3.02648e-05
 Reference value :  3.03484e-05
 Reference value :  3.05012e-05
 Reference value :  3.05050e-05
 Reference value :  3.05072e-05
 Reference value :  3.05102e-05
 Reference value :  3.05122e-05
 Reference value :  3.05141e-05
 Reference value :  3.05168e-05
 Reference value :  3.05200e-05
 Reference value :  3.05316e-05
 Reference value :  3.05420e-05
 Reference value :  3.05605e-05
 Reference value :  3.05831e-05
 Reference value :  3.06177e-05
 Reference value :  3.06592e-05
 Reference value :  3.06964e-05
 Reference value :  3.07501e-05
 Reference value :  3.07502e-05
 Reference value :  3.07503e-05
 Reference value :  3.07507e-05
 Reference value :  3.07514e-05
 Reference value :  3.07524e-05
 Reference value :  3.07543e-05
 Reference value :  3.07556e-05
 Reference value :  3.07590e-05
 Reference value :  3.07720e-05
 Reference value :  3.08378e-05
 Reference value :  3.10000e-05
 Reference value :  3.10001e-05
 Reference value :  3.10002e-05
 Reference value :  3.10005e-05
 Reference value :  3.10013e-05
 Reference value :  3.10022e-05
 Reference value :  3.10039e-05
 Reference value :  3.10055e-05
 Reference value :  3.10073e-05
 Reference value :  3.10090e-05
 Reference value :  3.10112e-05
 Reference value :  3.10289e-05
 Reference value :  3.11585e-05
 Reference value :  3.12501e-05
 Reference value :  3.12502e-05
 Reference value :  3.12503e-05
 Reference value :  3.12509e-05
 Reference value :  3.12518e-05
 Reference value :  3.12538e-05
 Reference value :  3.12550e-05
 Reference value :  3.12567e-05
 Reference value :  3.12584e-05
 Reference value :  3.12621e-05
 Reference value :  3.13076e-05
 Reference value :  3.15000e-05
 Reference value :  3.15001e-05
 Reference value :  3.15002e-05
 Reference value :  3.15008e-05
 Reference value :  3.15018e-05
 Reference value :  3.15033e-05
 Reference value :  3.15044e-05
 Reference value :  3.15056e-05
 Reference value :  3.15076e-05
 Reference value :  3.15107e-05
 Reference value :  3.15137e-05
 Reference value :  3.15162e-05
 Reference value :  3.15208e-05
 Reference value :  3.15545e-05
 Reference value :  3.17501e-05
 Reference value :  3.17502e-05
 Reference value :  3.17509e-05
 Reference value :  3.17524e-05
 Reference value :  3.17544e-05
 Reference value :  3.17591e-05
 Reference value :  3.18391e-05
 Reference value :  3.20001e-05
 Reference value :  3.20002e-05
 Reference value :  3.20013e-05
 Reference value :  3.20026e-05
 Reference value :  3.20047e-05
 Reference value :  3.20073e-05
 Reference value :  3.20090e-05
 Reference value :  3.20149e-05
 Reference value :  3.20475e-05
 Reference value :  3.22501e-05
 Reference value :  3.22502e-05
 Reference value :  3.22503e-05
 Reference value :  3.22507e-05
 Reference value :  3.22514e-05
 Reference value :  3.22524e-05
 Reference value :  3.22538e-05
 Reference value :  3.22544e-05
 Reference value :  3.22567e-05
 Reference value :  3.22593e-05
 Reference value :  3.22683e-05
 Reference value :  3.25000e-05
 Reference value :  3.25001e-05
 Reference value :  3.25005e-05
 Reference value :  3.25022e-05
 Reference value :  3.25039e-05
 Reference value :  3.25056e-05
 Reference value :  3.25067e-05
 Reference value :  3.25107e-05
 Reference value :  3.25137e-05
 Reference value :  3.25176e-05
 Reference value :  3.25331e-05
 Reference value :  3.27105e-05
 Reference value :  3.27502e-05
 Reference value :  3.27504e-05
 Reference value :  3.27514e-05
 Reference value :  3.27530e-05
 Reference value :  3.27550e-05
 Reference value :  3.27576e-05
 Reference value :  3.27723e-05
 Reference value :  3.30000e-05
 Reference value :  3.30001e-05
 Reference value :  3.30003e-05
 Reference value :  3.30018e-05
 Reference value :  3.30033e-05
 Reference value :  3.30055e-05
 Reference value :  3.30073e-05
 Reference value :  3.30090e-05
 Reference value :  3.30124e-05
 Reference value :  3.30852e-05
 Reference value :  3.32501e-05
 Reference value :  3.32502e-05
 Reference value :  3.32504e-05
 Reference value :  3.32514e-05
 Reference value :  3.32523e-05
 Reference value :  3.32538e-05
 Reference value :  3.32550e-05
 Reference value :  3.32567e-05
 Reference value :  3.32584e-05
 Reference value :  3.32621e-05
 Reference value :  3.32871e-05
 Reference value :  3.35000e-05
 Reference value :  3.35013e-05
 Reference value :  3.35052e-05
 Reference value :  3.35075e-05
 Reference value :  3.35095e-05
 Reference value :  3.35113e-05
 Reference value :  3.35133e-05
 Reference value :  3.35169e-05
 Reference value :  3.35214e-05
 Reference value :  3.35250e-05
 Reference value :  3.35388e-05
 Reference value :  3.36105e-05
 Reference value :  3.37501e-05
 Reference value :  3.37502e-05
 Reference value :  3.37503e-05
 Reference value :  3.37510e-05
 Reference value :  3.37519e-05
 Reference value :  3.37530e-05
 Reference value :  3.37546e-05
 Reference value :  3.37565e-05
 Reference value :  3.37591e-05
 Reference value :  3.37790e-05
 Reference value :  3.39769e-05
 Reference value :  3.40000e-05
 Reference value :  3.40000e-05
 Reference value :  3.40000e-05
 Reference value :  3.40001e-05
 Reference value :  3.40001e-05
 Reference value :  3.40002e-05
 Reference value :  3.40008e-05
 Reference value :  3.40017e-05
 Reference value :  3.40027e-05
 Reference value :  3.40048e-05
 Reference value :  3.40061e-05
 Reference value :  3.40076e-05
 Reference value :  3.40142e-05
 Reference value :  3.40270e-05
 Reference value :  3.40314e-05
 Reference value :  3.40382e-05
 Reference value :  3.40424e-05
 Reference value :  3.40457e-05
 Reference value :  3.40502e-05
 Reference value :  3.40608e-05
 Reference value :  3.41037e-05
 Reference value :  3.42501e-05
 Reference value :  3.42502e-05
 Reference value :  3.42503e-05
 Reference value :  3.42507e-05
 Reference value :  3.42514e-05
 Reference value :  3.42524e-05
 Reference value :  3.42538e-05
 Reference value :  3.42550e-05
 Reference value :  3.42576e-05
 Reference value :  3.42655e-05
 Reference value :  3.43396e-05
 Reference value :  3.43945e-05
 Reference value :  3.44489e-05
 Reference value :  3.44863e-05
 Reference value :  3.45000e-05
 Reference value :  3.45001e-05
 Reference value :  3.45002e-05
 Reference value :  3.45013e-05
 Reference value :  3.45027e-05
 Reference value :  3.45048e-05
 Reference value :  3.45081e-05
 Reference value :  3.45121e-05
 Reference value :  3.45151e-05
 Reference value :  3.45188e-05
 Reference value :  3.45380e-05
 Reference value :  3.47131e-05
 Reference value :  3.47502e-05
 Reference value :  3.47503e-05
 Reference value :  3.47507e-05
 Reference value :  3.47514e-05
 Reference value :  3.47524e-05
 Reference value :  3.47538e-05
 Reference value :  3.47544e-05
 Reference value :  3.47558e-05
 Reference value :  3.47574e-05
 Reference value :  3.47591e-05
 Reference value :  3.47618e-05
 Reference value :  3.47709e-05
 Reference value :  3.47995e-05
 Reference value :  3.50000e-05
 Reference value :  3.50001e-05
 Reference value :  3.50001e-05
 Reference value :  3.50003e-05
 Reference value :  3.50013e-05
 Reference value :  3.50022e-05
 Reference value :  3.50033e-05
 Reference value :  3.50044e-05
 Reference value :  3.50056e-05
 Reference value :  3.50067e-05
 Reference value :  3.50097e-05
 Reference value :  3.50107e-05
 Reference value :  3.50128e-05
 Reference value :  3.50137e-05
 Reference value :  3.50155e-05
 Reference value :  3.50175e-05
 Reference value :  3.50197e-05
 Reference value :  3.50229e-05
 Reference value :  3.50369e-05
 Reference value :  3.51052e-05
 Reference value :  3.51378e-05
 Reference value :  3.51680e-05
 Reference value :  3.51883e-05
 Reference value :  3.52043e-05
 Reference value :  3.52501e-05
 Reference value :  3.52502e-05
 Reference value :  3.52502e-05
 Reference value :  3.52504e-05
 Reference value :  3.52514e-05
 Reference value :  3.52530e-05
 Reference value :  3.52544e-05
 Reference value :  3.52567e-05
 Reference value :  3.52614e-05
 Reference value :  3.53050e-05
 Reference value :  3.55000e-05
 Reference value :  3.55001e-05
 Reference value :  3.55002e-05
 Reference value :  3.55005e-05
 Reference value :  3.55013e-05
 Reference value :  3.55022e-05
 Reference value :  3.55032e-05
 Reference value :  3.55044e-05
 Reference value :  3.55062e-05
 Reference value :  3.55082e-05
 Reference value :  3.55104e-05
 Reference value :  3.55129e-05
 Reference value :  3.55288e-05
 Reference value :  3.57501e-05
 Reference value :  3.57502e-05
 Reference value :  3.57503e-05
 Reference value :  3.57507e-05
 Reference value :  3.57514e-05
 Reference value :  3.57530e-05
 Reference value :  3.57544e-05
 Reference value :  3.57567e-05
 Reference value :  3.57614e-05
 Reference value :  3.57839e-05
 Reference value :  3.60000e-05
 Reference value :  3.60018e-05
 Reference value :  3.60072e-05
 Reference value :  3.60127e-05
 Reference value :  3.60153e-05
 Reference value :  3.60177e-05
 Reference value :  3.60247e-05
 Reference value :  3.60439e-05
 Reference value :  3.60596e-05
 Reference value :  3.60766e-05
 Reference value :  3.61158e-05
 Reference value :  3.62501e-05
 Reference value :  3.62502e-05
 Reference value :  3.62504e-05
 Reference value :  3.62514e-05
 Reference value :  3.62530e-05
 Reference value :  3.62542e-05
 Reference value :  3.62573e-05
 Reference value :  3.62811e-05
 Reference value :  3.65000e-05
 Reference value :  3.65001e-05
 Reference value :  3.65002e-05
 Reference value :  3.65008e-05
 Reference value :  3.65018e-05
 Reference value :  3.65033e-05
 Reference value :  3.65047e-05
 Reference value :  3.65073e-05
 Reference value :  3.65090e-05
 Reference value :  3.65124e-05
 Reference value :  3.65476e-05
 Reference value :  3.67501e-05
 Reference value :  3.67502e-05
 Reference value :  3.67503e-05
 Reference value :  3.67509e-05
 Reference value :  3.67518e-05
 Reference value :  3.67538e-05
 Reference value :  3.67550e-05
 Reference value :  3.67576e-05
 Reference value :  3.67593e-05
 Reference value :  3.67649e-05
 Reference value :  3.68078e-05
 Reference value :  3.70000e-05
 Reference value :  3.70001e-05
 Reference value :  3.70002e-05
 Reference value :  3.70005e-05
 Reference value :  3.70013e-05
 Reference value :  3.70022e-05
 Reference value :  3.70033e-05
 Reference value :  3.70044e-05
 Reference value :  3.70056e-05
 Reference value :  3.70067e-05
 Reference value :  3.70097e-05
 Reference value :  3.70107e-05
 Reference value :  3.70128e-05
 Reference value :  3.70145e-05
 Reference value :  3.70176e-05
 Reference value :  3.70213e-05
 Reference value :  3.70374e-05
 Reference value :  3.70530e-05
 Reference value :  3.70605e-05
 Reference value :  3.70694e-05
 Reference value :  3.70745e-05
 Reference value :  3.70894e-05
 Reference value :  3.71370e-05
 Reference value :  3.72498e-05
 Reference value :  3.72501e-05
 Reference value :  3.72502e-05
 Reference value :  3.72503e-05
 Reference value :  3.72509e-05
 Reference value :  3.72518e-05
 Reference value :  3.72538e-05
 Reference value :  3.72550e-05
 Reference value :  3.72576e-05
 Reference value :  3.72654e-05
 Reference value :  3.73404e-05
 Reference value :  3.75000e-05
 Reference value :  3.75001e-05
 Reference value :  3.75002e-05
 Reference value :  3.75005e-05
 Reference value :  3.75013e-05
 Reference value :  3.75022e-05
 Reference value :  3.75032e-05
 Reference value :  3.75044e-05
 Reference value :  3.75062e-05
 Reference value :  3.75082e-05
 Reference value :  3.75116e-05
 Reference value :  3.75288e-05
 Reference value :  3.77501e-05
 Reference value :  3.77502e-05
 Reference value :  3.77502e-05
 Reference value :  3.77504e-05
 Reference value :  3.77514e-05
 Reference value :  3.77530e-05
 Reference value :  3.77544e-05
 Reference value :  3.77567e-05
 Reference value :  3.77614e-05
 Reference value :  3.77839e-05
 Reference value :  3.79054e-05
 Reference value :  3.80000e-05
 Reference value :  3.80001e-05
 Reference value :  3.80002e-05
 Reference value :  3.80008e-05
 Reference value :  3.80018e-05
 Reference value :  3.80027e-05
 Reference value :  3.80039e-05
 Reference value :  3.80044e-05
 Reference value :  3.80056e-05
 Reference value :  3.80061e-05
 Reference value :  3.80084e-05
 Reference value :  3.80114e-05
 Reference value :  3.80128e-05
 Reference value :  3.80149e-05
 Reference value :  3.80171e-05
 Reference value :  3.80211e-05
 Reference value :  3.80296e-05
 Reference value :  3.80389e-05
 Reference value :  3.80473e-05
 Reference value :  3.80553e-05
 Reference value :  3.80708e-05
 Reference value :  3.81531e-05
 Reference value :  3.82501e-05
 Reference value :  3.82502e-05
 Reference value :  3.82509e-05
 Reference value :  3.82524e-05
 Reference value :  3.82544e-05
 Reference value :  3.82579e-05
 Reference value :  3.82729e-05
 Reference value :  3.84006e-05
 Reference value :  3.85018e-05
 Reference value :  3.85055e-05
 Reference value :  3.85074e-05
 Reference value :  3.85108e-05
 Reference value :  3.85145e-05
 Reference value :  3.85244e-05
 Reference value :  3.85599e-05
 Reference value :  3.87501e-05
 Reference value :  3.87502e-05
 Reference value :  3.87502e-05
 Reference value :  3.87504e-05
 Reference value :  3.87514e-05
 Reference value :  3.87524e-05
 Reference value :  3.87542e-05
 Reference value :  3.87555e-05
 Reference value :  3.87571e-05
 Reference value :  3.87591e-05
 Reference value :  3.87638e-05
 Reference value :  3.87998e-05
 Reference value :  3.90000e-05
 Reference value :  3.90001e-05
 Reference value :  3.90002e-05
 Reference value :  3.90005e-05
 Reference value :  3.90013e-05
 Reference value :  3.90022e-05
 Reference value :  3.90033e-05
 Reference value :  3.90044e-05
 Reference value :  3.90056e-05
 Reference value :  3.90061e-05
 Reference value :  3.90076e-05
 Reference value :  3.90097e-05
 Reference value :  3.90107e-05
 Reference value :  3.90129e-05
 Reference value :  3.90145e-05
 Reference value :  3.90165e-05
 Reference value :  3.90200e-05
 Reference value :  3.90318e-05
 Reference value :  3.90405e-05
 Reference value :  3.90653e-05
 Reference value :  3.90819e-05
 Reference value :  3.91481e-05
 Reference value :  3.92270e-05
 Reference value :  3.92502e-05
 Reference value :  3.92503e-05
 Reference value :  3.92507e-05
 Reference value :  3.92514e-05
 Reference value :  3.92524e-05
 Reference value :  3.92538e-05
 Reference value :  3.92550e-05
 Reference value :  3.92576e-05
 Reference value :  3.92653e-05
 Reference value :  3.93391e-05
 Reference value :  3.95000e-05
 Reference value :  3.95001e-05
 Reference value :  3.95002e-05
 Reference value :  3.95008e-05
 Reference value :  3.95018e-05
 Reference value :  3.95026e-05
 Reference value :  3.95039e-05
 Reference value :  3.95055e-05
 Reference value :  3.95073e-05
 Reference value :  3.95090e-05
 Reference value :  3.95124e-05
 Reference value :  3.95477e-05
 Reference value :  3.97501e-05
 Reference value :  3.97502e-05
 Reference value :  3.97504e-05
 Reference value :  3.97514e-05
 Reference value :  3.97530e-05
 Reference value :  3.97544e-05
 Reference value :  3.97567e-05
 Reference value :  3.97584e-05
 Reference value :  3.97621e-05
 Reference value :  3.97873e-05
 Reference value :  4.00000e-05
 Reference value :  4.00001e-05
 Reference value :  4.00001e-05
 Reference value :  4.00003e-05
 Reference value :  4.00013e-05
 Reference value :  4.00022e-05
 Reference value :  4.00033e-05
 Reference value :  4.00044e-05
 Reference value :  4.00056e-05
 Reference value :  4.00061e-05
 Reference value :  4.00076e-05
 Reference value :  4.00097e-05
 Reference value :  4.00107e-05
 Reference value :  4.00129e-05
 Reference value :  4.00145e-05
 Reference value :  4.00162e-05
 Reference value :  4.00193e-05
 Reference value :  4.00254e-05
 Reference value :  4.00630e-05
 Reference value :  4.01180e-05
 Reference value :  4.02501e-05
 Reference value :  4.02502e-05
 Reference value :  4.02504e-05
 Reference value :  4.02514e-05
 Reference value :  4.02530e-05
 Reference value :  4.02544e-05
 Reference value :  4.02576e-05
 Reference value :  4.02723e-05
 Reference value :  4.04039e-05
 Reference value :  4.05001e-05
 Reference value :  4.05001e-05
 Reference value :  4.05003e-05
 Reference value :  4.05013e-05
 Reference value :  4.05022e-05
 Reference value :  4.05039e-05
 Reference value :  4.05055e-05
 Reference value :  4.05073e-05
 Reference value :  4.05090e-05
 Reference value :  4.05124e-05
 Reference value :  4.05475e-05
 Reference value :  4.07501e-05
 Reference value :  4.07502e-05
 Reference value :  4.07504e-05
 Reference value :  4.07514e-05
 Reference value :  4.07530e-05
 Reference value :  4.07544e-05
 Reference value :  4.07567e-05
 Reference value :  4.07593e-05
 Reference value :  4.07873e-05
 Reference value :  4.10013e-05
 Reference value :  4.10051e-05
 Reference value :  4.10083e-05
 Reference value :  4.10103e-05
 Reference value :  4.10122e-05
 Reference value :  4.10140e-05
 Reference value :  4.10156e-05
 Reference value :  4.10181e-05
 Reference value :  4.10291e-05
 Reference value :  4.10590e-05
 Reference value :  4.11026e-05
 Reference value :  4.11152e-05
 Reference value :  4.11637e-05
 Reference value :  4.12501e-05
 Reference value :  4.12502e-05
 Reference value :  4.12502e-05
 Reference value :  4.12504e-05
 Reference value :  4.12509e-05
 Reference value :  4.12519e-05
 Reference value :  4.12530e-05
 Reference value :  4.12544e-05
 Reference value :  4.12557e-05
 Reference value :  4.12575e-05
 Reference value :  4.12653e-05
 Reference value :  4.13040e-05
 Reference value :  4.15000e-05
 Reference value :  4.15000e-05
 Reference value :  4.15001e-05
 Reference value :  4.15002e-05
 Reference value :  4.15005e-05
 Reference value :  4.15018e-05
 Reference value :  4.15027e-05
 Reference value :  4.15038e-05
 Reference value :  4.15051e-05
 Reference value :  4.15072e-05
 Reference value :  4.15093e-05
 Reference value :  4.15116e-05
 Reference value :  4.15286e-05
 Reference value :  4.17501e-05
 Reference value :  4.17502e-05
 Reference value :  4.17502e-05
 Reference value :  4.17504e-05
 Reference value :  4.17514e-05
 Reference value :  4.17530e-05
 Reference value :  4.17544e-05
 Reference value :  4.17558e-05
 Reference value :  4.17576e-05
 Reference value :  4.17655e-05
 Reference value :  4.18048e-05
 Reference value :  4.20000e-05
 Reference value :  4.20000e-05
 Reference value :  4.20001e-05
 Reference value :  4.20001e-05
 Reference value :  4.20002e-05
 Reference value :  4.20005e-05
 Reference value :  4.20013e-05
 Reference value :  4.20022e-05
 Reference value :  4.20033e-05
 Reference value :  4.20044e-05
 Reference value :  4.20056e-05
 Reference value :  4.20061e-05
 Reference value :  4.20076e-05
 Reference value :  4.20093e-05
 Reference value :  4.20103e-05
 Reference value :  4.20179e-05
 Reference value :  4.20442e-05
 Reference value :  4.22501e-05
 Reference value :  4.22501e-05
 Reference value :  4.22502e-05
 Reference value :  4.22503e-05
 Reference value :  4.22507e-05
 Reference value :  4.22514e-05
 Reference value :  4.22524e-05
 Reference value :  4.22539e-05
 Reference value :  4.22566e-05
 Reference value :  4.22618e-05
 Reference value :  4.22806e-05
 Reference value :  4.23840e-05
 Reference value :  4.25000e-05
 Reference value :  4.25000e-05
 Reference value :  4.25000e-05
 Reference value :  4.25000e-05
 Reference value :  4.25001e-05
 Reference value :  4.25002e-05
 Reference value :  4.25004e-05
 Reference value :  4.25017e-05
 Reference value :  4.25027e-05
 Reference value :  4.25047e-05
 Reference value :  4.25054e-05
 Reference value :  4.25068e-05
 Reference value :  4.25109e-05
 Reference value :  4.25208e-05
 Reference value :  4.25270e-05
 Reference value :  4.25315e-05
 Reference value :  4.25371e-05
 Reference value :  4.25405e-05
 Reference value :  4.25434e-05
 Reference value :  4.25464e-05
 Reference value :  4.25538e-05
 Reference value :  4.25650e-05
 Reference value :  4.26009e-05
 Reference value :  4.26727e-05
 Reference value :  4.27501e-05
 Reference value :  4.27502e-05
 Reference value :  4.27503e-05
 Reference value :  4.27509e-05
 Reference value :  4.27518e-05
 Reference value :  4.27530e-05
 Reference value :  4.27544e-05
 Reference value :  4.27567e-05
 Reference value :  4.27656e-05
 Reference value :  4.28942e-05
 Reference value :  4.29433e-05
 Reference value :  4.29784e-05
 Reference value :  4.30000e-05
 Reference value :  4.30001e-05
 Reference value :  4.30001e-05
 Reference value :  4.30003e-05
 Reference value :  4.30013e-05
 Reference value :  4.30022e-05
 Reference value :  4.30039e-05
 Reference value :  4.30068e-05
 Reference value :  4.30081e-05
 Reference value :  4.30107e-05
 Reference value :  4.30137e-05
 Reference value :  4.30151e-05
 Reference value :  4.30191e-05
 Reference value :  4.30306e-05
 Reference value :  4.30780e-05
 Reference value :  4.32501e-05
 Reference value :  4.32502e-05
 Reference value :  4.32502e-05
 Reference value :  4.32504e-05
 Reference value :  4.32514e-05
 Reference value :  4.32530e-05
 Reference value :  4.32544e-05
 Reference value :  4.32558e-05
 Reference value :  4.32574e-05
 Reference value :  4.32602e-05
 Reference value :  4.32667e-05
 Reference value :  4.32990e-05
 Reference value :  4.35000e-05
 Reference value :  4.35017e-05
 Reference value :  4.35051e-05
 Reference value :  4.35069e-05
 Reference value :  4.35099e-05
 Reference value :  4.35122e-05
 Reference value :  4.35142e-05
 Reference value :  4.35163e-05
 Reference value :  4.35186e-05
 Reference value :  4.35235e-05
 Reference value :  4.35537e-05
 Reference value :  4.36541e-05
 Reference value :  4.36792e-05
 Reference value :  4.36963e-05
 Reference value :  4.37289e-05
 Reference value :  4.37501e-05
 Reference value :  4.37502e-05
 Reference value :  4.37503e-05
 Reference value :  4.37509e-05
 Reference value :  4.37519e-05
 Reference value :  4.37537e-05
 Reference value :  4.37549e-05
 Reference value :  4.37573e-05
 Reference value :  4.37710e-05
 Reference value :  4.38967e-05
 Reference value :  4.40000e-05
 Reference value :  4.40001e-05
 Reference value :  4.40002e-05
 Reference value :  4.40008e-05
 Reference value :  4.40018e-05
 Reference value :  4.40027e-05
 Reference value :  4.40038e-05
 Reference value :  4.40051e-05
 Reference value :  4.40072e-05
 Reference value :  4.40093e-05
 Reference value :  4.40116e-05
 Reference value :  4.40203e-05
 Reference value :  4.41416e-05
 Reference value :  4.42502e-05
 Reference value :  4.42503e-05
 Reference value :  4.42509e-05
 Reference value :  4.42524e-05
 Reference value :  4.42538e-05
 Reference value :  4.42551e-05
 Reference value :  4.42567e-05
 Reference value :  4.42592e-05
 Reference value :  4.42725e-05
 Reference value :  4.43397e-05
 Reference value :  4.45000e-05
 Reference value :  4.45001e-05
 Reference value :  4.45002e-05
 Reference value :  4.45005e-05
 Reference value :  4.45013e-05
 Reference value :  4.45022e-05
 Reference value :  4.45033e-05
 Reference value :  4.45044e-05
 Reference value :  4.45056e-05
 Reference value :  4.45067e-05
 Reference value :  4.45100e-05
 Reference value :  4.45128e-05
 Reference value :  4.45149e-05
 Reference value :  4.45171e-05
 Reference value :  4.45211e-05
 Reference value :  4.45410e-05
 Reference value :  4.45592e-05
 Reference value :  4.45772e-05
 Reference value :  4.45905e-05
 Reference value :  4.46186e-05
 Reference value :  4.47473e-05
 Reference value :  4.47501e-05
 Reference value :  4.47502e-05
 Reference value :  4.47504e-05
 Reference value :  4.47514e-05
[...]
 Reference value :  1.66258e-04
 Reference value :  1.66259e-04
 Reference value :  1.66265e-04
 Reference value :  1.66308e-04
 Reference value :  1.66500e-04
 Reference value :  1.66500e-04
 Reference value :  1.66500e-04
 Reference value :  1.66500e-04
 Reference value :  1.66501e-04
 Reference value :  1.66502e-04
 Reference value :  1.66503e-04
 Reference value :  1.66504e-04
 Reference value :  1.66506e-04
 Reference value :  1.66506e-04
 Reference value :  1.66508e-04
 Reference value :  1.66510e-04
 Reference value :  1.66511e-04
 Reference value :  1.66513e-04
 Reference value :  1.66514e-04
 Reference value :  1.66516e-04
 Reference value :  1.66519e-04
 Reference value :  1.66521e-04
 Reference value :  1.66528e-04
 Reference value :  1.66533e-04
 Reference value :  1.66536e-04
 Reference value :  1.66549e-04
 Reference value :  1.66581e-04
 Reference value :  1.66750e-04
 Reference value :  1.66750e-04
 Reference value :  1.66750e-04
 Reference value :  1.66750e-04
 Reference value :  1.66751e-04
 Reference value :  1.66751e-04
 Reference value :  1.66753e-04
 Reference value :  1.66754e-04
 Reference value :  1.66757e-04
 Reference value :  1.66765e-04
 Reference value :  1.66840e-04
 Reference value :  1.67000e-04
 Reference value :  1.67000e-04
 Reference value :  1.67001e-04
 Reference value :  1.67002e-04
 Reference value :  1.67003e-04
 Reference value :  1.67004e-04
 Reference value :  1.67005e-04
 Reference value :  1.67007e-04
 Reference value :  1.67009e-04
 Reference value :  1.67012e-04
 Reference value :  1.67029e-04
 Reference value :  1.67250e-04
 Reference value :  1.67250e-04
 Reference value :  1.67250e-04
 Reference value :  1.67250e-04
 Reference value :  1.67251e-04
 Reference value :  1.67253e-04
 Reference value :  1.67254e-04
 Reference value :  1.67257e-04
 Reference value :  1.67261e-04
 Reference value :  1.67305e-04
 Reference value :  1.67500e-04
 Reference value :  1.67500e-04
 Reference value :  1.67500e-04
 Reference value :  1.67500e-04
 Reference value :  1.67501e-04
 Reference value :  1.67502e-04
 Reference value :  1.67503e-04
 Reference value :  1.67504e-04
 Reference value :  1.67506e-04
 Reference value :  1.67507e-04
 Reference value :  1.67510e-04
 Reference value :  1.67513e-04
 Reference value :  1.67515e-04
 Reference value :  1.67517e-04
 Reference value :  1.67523e-04
 Reference value :  1.67544e-04
 Reference value :  1.67555e-04
 Reference value :  1.67566e-04
 Reference value :  1.67600e-04
 Reference value :  1.67750e-04
 Reference value :  1.67750e-04
 Reference value :  1.67750e-04
 Reference value :  1.67750e-04
 Reference value :  1.67751e-04
 Reference value :  1.67752e-04
 Reference value :  1.67754e-04
 Reference value :  1.67756e-04
 Reference value :  1.67759e-04
 Reference value :  1.67785e-04
 Reference value :  1.68000e-04
 Reference value :  1.68000e-04
 Reference value :  1.68000e-04
 Reference value :  1.68001e-04
 Reference value :  1.68002e-04
 Reference value :  1.68005e-04
 Reference value :  1.68007e-04
 Reference value :  1.68009e-04
 Reference value :  1.68015e-04
 Reference value :  1.68160e-04
 Reference value :  1.68250e-04
 Reference value :  1.68250e-04
 Reference value :  1.68251e-04
 Reference value :  1.68251e-04
 Reference value :  1.68253e-04
 Reference value :  1.68254e-04
 Reference value :  1.68257e-04
 Reference value :  1.68259e-04
 Reference value :  1.68275e-04
 Reference value :  1.68500e-04
 Reference value :  1.68500e-04
 Reference value :  1.68500e-04
 Reference value :  1.68501e-04
 Reference value :  1.68503e-04
 Reference value :  1.68504e-04
 Reference value :  1.68504e-04
 Reference value :  1.68506e-04
 Reference value :  1.68507e-04
 Reference value :  1.68510e-04
 Reference value :  1.68512e-04
 Reference value :  1.68514e-04
 Reference value :  1.68516e-04
 Reference value :  1.68521e-04
 Reference value :  1.68550e-04
 Reference value :  1.68750e-04
 Reference value :  1.68750e-04
 Reference value :  1.68750e-04
 Reference value :  1.68751e-04
 Reference value :  1.68753e-04
 Reference value :  1.68754e-04
 Reference value :  1.68758e-04
 Reference value :  1.68804e-04
 Reference value :  1.69000e-04
 Reference value :  1.69000e-04
 Reference value :  1.69000e-04
 Reference value :  1.69001e-04
 Reference value :  1.69003e-04
 Reference value :  1.69005e-04
 Reference value :  1.69007e-04
 Reference value :  1.69010e-04
 Reference value :  1.69029e-04
 Reference value :  1.69250e-04
 Reference value :  1.69250e-04
 Reference value :  1.69251e-04
 Reference value :  1.69252e-04
 Reference value :  1.69254e-04
 Reference value :  1.69255e-04
 Reference value :  1.69257e-04
 Reference value :  1.69258e-04
 Reference value :  1.69262e-04
 Reference value :  1.69287e-04
 Reference value :  1.69500e-04
 Reference value :  1.69500e-04
 Reference value :  1.69500e-04
 Reference value :  1.69501e-04
 Reference value :  1.69502e-04
 Reference value :  1.69504e-04
 Reference value :  1.69505e-04
 Reference value :  1.69506e-04
 Reference value :  1.69508e-04
 Reference value :  1.69510e-04
 Reference value :  1.69512e-04
 Reference value :  1.69515e-04
 Reference value :  1.69523e-04
 Reference value :  1.69539e-04
 Reference value :  1.69750e-04
 Reference value :  1.69750e-04
 Reference value :  1.69750e-04
 Reference value :  1.69751e-04
 Reference value :  1.69753e-04
 Reference value :  1.69755e-04
 Reference value :  1.69758e-04
 Reference value :  1.69771e-04
 Reference value :  1.69884e-04
 Reference value :  1.70000e-04
 Reference value :  1.70000e-04
 Reference value :  1.70000e-04
 Reference value :  1.70000e-04
 Reference value :  1.70000e-04
 Reference value :  1.70000e-04
 Reference value :  1.70001e-04
 Reference value :  1.70002e-04
 Reference value :  1.70002e-04
 Reference value :  1.70004e-04
 Reference value :  1.70005e-04
 Reference value :  1.70007e-04
 Reference value :  1.70011e-04
 Reference value :  1.70021e-04
 Reference value :  1.70027e-04
 Reference value :  1.70031e-04
 Reference value :  1.70037e-04
 Reference value :  1.70048e-04
 Reference value :  1.70065e-04
 Reference value :  1.70105e-04
 Reference value :  1.70178e-04
 Reference value :  1.70250e-04
 Reference value :  1.70250e-04
 Reference value :  1.70250e-04
 Reference value :  1.70250e-04
 Reference value :  1.70251e-04
 Reference value :  1.70251e-04
 Reference value :  1.70253e-04
 Reference value :  1.70255e-04
 Reference value :  1.70258e-04
 Reference value :  1.70272e-04
 Reference value :  1.70405e-04
 Reference value :  1.70468e-04
 Reference value :  1.70500e-04
 Reference value :  1.70500e-04
 Reference value :  1.70500e-04
 Reference value :  1.70500e-04
 Reference value :  1.70501e-04
 Reference value :  1.70502e-04
 Reference value :  1.70503e-04
 Reference value :  1.70505e-04
 Reference value :  1.70507e-04
 Reference value :  1.70508e-04
 Reference value :  1.70511e-04
 Reference value :  1.70514e-04
 Reference value :  1.70515e-04
 Reference value :  1.70519e-04
 Reference value :  1.70531e-04
 Reference value :  1.70579e-04
 Reference value :  1.70714e-04
 Reference value :  1.70750e-04
 Reference value :  1.70750e-04
 Reference value :  1.70750e-04
 Reference value :  1.70751e-04
 Reference value :  1.70751e-04
 Reference value :  1.70753e-04
 Reference value :  1.70754e-04
 Reference value :  1.70756e-04
 Reference value :  1.70757e-04
 Reference value :  1.70759e-04
 Reference value :  1.70764e-04
 Reference value :  1.70786e-04
 Reference value :  1.70900e-04
 Reference value :  1.71000e-04
 Reference value :  1.71000e-04
 Reference value :  1.71000e-04
 Reference value :  1.71002e-04
 Reference value :  1.71003e-04
 Reference value :  1.71004e-04
 Reference value :  1.71005e-04
 Reference value :  1.71006e-04
 Reference value :  1.71007e-04
 Reference value :  1.71008e-04
 Reference value :  1.71011e-04
 Reference value :  1.71013e-04
 Reference value :  1.71014e-04
 Reference value :  1.71016e-04
 Reference value :  1.71020e-04
 Reference value :  1.71023e-04
 Reference value :  1.71037e-04
 Reference value :  1.71138e-04
 Reference value :  1.71165e-04
 Reference value :  1.71185e-04
 Reference value :  1.71234e-04
 Reference value :  1.71250e-04
 Reference value :  1.71250e-04
 Reference value :  1.71251e-04
 Reference value :  1.71252e-04
 Reference value :  1.71254e-04
 Reference value :  1.71255e-04
 Reference value :  1.71258e-04
 Reference value :  1.71273e-04
 Reference value :  1.71407e-04
 Reference value :  1.71500e-04
 Reference value :  1.71500e-04
 Reference value :  1.71501e-04
 Reference value :  1.71502e-04
 Reference value :  1.71503e-04
 Reference value :  1.71505e-04
 Reference value :  1.71509e-04
 Reference value :  1.71515e-04
 Reference value :  1.71645e-04
 Reference value :  1.71750e-04
 Reference value :  1.71750e-04
 Reference value :  1.71751e-04
 Reference value :  1.71752e-04
 Reference value :  1.71754e-04
 Reference value :  1.71758e-04
 Reference value :  1.71784e-04
 Reference value :  1.72000e-04
 Reference value :  1.72000e-04
 Reference value :  1.72000e-04
 Reference value :  1.72001e-04
 Reference value :  1.72002e-04
 Reference value :  1.72003e-04
 Reference value :  1.72004e-04
 Reference value :  1.72004e-04
 Reference value :  1.72006e-04
 Reference value :  1.72007e-04
 Reference value :  1.72010e-04
 Reference value :  1.72013e-04
 Reference value :  1.72015e-04
 Reference value :  1.72017e-04
 Reference value :  1.72019e-04
 Reference value :  1.72023e-04
 Reference value :  1.72032e-04
 Reference value :  1.72054e-04
 Reference value :  1.72068e-04
 Reference value :  1.72081e-04
 Reference value :  1.72090e-04
 Reference value :  1.72099e-04
 Reference value :  1.72114e-04
 Reference value :  1.72127e-04
 Reference value :  1.72175e-04
 Reference value :  1.72250e-04
 Reference value :  1.72250e-04
 Reference value :  1.72250e-04
 Reference value :  1.72250e-04
 Reference value :  1.72251e-04
 Reference value :  1.72251e-04
 Reference value :  1.72252e-04
 Reference value :  1.72254e-04
 Reference value :  1.72255e-04
 Reference value :  1.72257e-04
 Reference value :  1.72266e-04
 Reference value :  1.72338e-04
 Reference value :  1.72500e-04
 Reference value :  1.72500e-04
 Reference value :  1.72500e-04
 Reference value :  1.72501e-04
 Reference value :  1.72502e-04
 Reference value :  1.72503e-04
 Reference value :  1.72505e-04
 Reference value :  1.72507e-04
 Reference value :  1.72507e-04
 Reference value :  1.72509e-04
 Reference value :  1.72511e-04
 Reference value :  1.72520e-04
 Reference value :  1.72585e-04
 Reference value :  1.72750e-04
 Reference value :  1.72750e-04
 Reference value :  1.72750e-04
 Reference value :  1.72751e-04
 Reference value :  1.72753e-04
 Reference value :  1.72754e-04
 Reference value :  1.72757e-04
 Reference value :  1.72758e-04
 Reference value :  1.72762e-04
 Reference value :  1.72775e-04
 Reference value :  1.72849e-04
 Reference value :  1.73000e-04
 Reference value :  1.73000e-04
 Reference value :  1.73001e-04
 Reference value :  1.73002e-04
 Reference value :  1.73003e-04
 Reference value :  1.73004e-04
 Reference value :  1.73006e-04
 Reference value :  1.73007e-04
 Reference value :  1.73010e-04
 Reference value :  1.73012e-04
 Reference value :  1.73014e-04
 Reference value :  1.73016e-04
 Reference value :  1.73020e-04
 Reference value :  1.73031e-04
 Reference value :  1.73045e-04
 Reference value :  1.73059e-04
 Reference value :  1.73069e-04
 Reference value :  1.73087e-04
 Reference value :  1.73138e-04
 Reference value :  1.73250e-04
 Reference value :  1.73250e-04
 Reference value :  1.73250e-04
 Reference value :  1.73251e-04
 Reference value :  1.73251e-04
 Reference value :  1.73253e-04
 Reference value :  1.73254e-04
 Reference value :  1.73257e-04
 Reference value :  1.73261e-04
 Reference value :  1.73305e-04
 Reference value :  1.73500e-04
 Reference value :  1.73500e-04
 Reference value :  1.73501e-04
 Reference value :  1.73502e-04
 Reference value :  1.73503e-04
 Reference value :  1.73504e-04
 Reference value :  1.73505e-04
 Reference value :  1.73508e-04
 Reference value :  1.73513e-04
 Reference value :  1.73645e-04
 Reference value :  1.73750e-04
 Reference value :  1.73750e-04
 Reference value :  1.73752e-04
 Reference value :  1.73754e-04
 Reference value :  1.73755e-04
 Reference value :  1.73758e-04
 Reference value :  1.73784e-04
 Reference value :  1.74000e-04
 Reference value :  1.74000e-04
 Reference value :  1.74000e-04
 Reference value :  1.74000e-04
 Reference value :  1.74001e-04
 Reference value :  1.74002e-04
 Reference value :  1.74003e-04
 Reference value :  1.74004e-04
 Reference value :  1.74006e-04
 Reference value :  1.74007e-04
 Reference value :  1.74010e-04
 Reference value :  1.74013e-04
 Reference value :  1.74016e-04
 Reference value :  1.74019e-04
 Reference value :  1.74030e-04
 Reference value :  1.74055e-04
 Reference value :  1.74071e-04
 Reference value :  1.74142e-04
 Reference value :  1.74250e-04
 Reference value :  1.74250e-04
 Reference value :  1.74251e-04
 Reference value :  1.74253e-04
 Reference value :  1.74254e-04
 Reference value :  1.74257e-04
 Reference value :  1.74266e-04
 Reference value :  1.74338e-04
 Reference value :  1.74500e-04
 Reference value :  1.74500e-04
 Reference value :  1.74500e-04
 Reference value :  1.74501e-04
 Reference value :  1.74503e-04
 Reference value :  1.74504e-04
 Reference value :  1.74506e-04
 Reference value :  1.74507e-04
 Reference value :  1.74509e-04
 Reference value :  1.74515e-04
 Reference value :  1.74660e-04
 Reference value :  1.74750e-04
 Reference value :  1.74750e-04
 Reference value :  1.74751e-04
 Reference value :  1.74752e-04
 Reference value :  1.74754e-04
 Reference value :  1.74757e-04
 Reference value :  1.74758e-04
 Reference value :  1.74762e-04
 Reference value :  1.74787e-04
 Reference value :  1.75000e-04
 Reference value :  1.75000e-04
 Reference value :  1.75000e-04
 Reference value :  1.75000e-04
 Reference value :  1.75001e-04
 Reference value :  1.75002e-04
 Reference value :  1.75003e-04
 Reference value :  1.75004e-04
 Reference value :  1.75006e-04
 Reference value :  1.75006e-04
 Reference value :  1.75008e-04
 Reference value :  1.75010e-04
 Reference value :  1.75011e-04
 Reference value :  1.75013e-04
 Reference value :  1.75014e-04
 Reference value :  1.75016e-04
 Reference value :  1.75019e-04
 Reference value :  1.75021e-04
 Reference value :  1.75028e-04
 Reference value :  1.75031e-04
 Reference value :  1.75033e-04
 Reference value :  1.75037e-04
 Reference value :  1.75050e-04
 Reference value :  1.75110e-04
 Reference value :  1.75250e-04
 Reference value :  1.75250e-04
 Reference value :  1.75250e-04
 Reference value :  1.75250e-04
 Reference value :  1.75251e-04
 Reference value :  1.75251e-04
 Reference value :  1.75252e-04
 Reference value :  1.75254e-04
 Reference value :  1.75255e-04
 Reference value :  1.75258e-04
 Reference value :  1.75265e-04
 Reference value :  1.75340e-04
 Reference value :  1.75500e-04
 Reference value :  1.75500e-04
 Reference value :  1.75500e-04
 Reference value :  1.75501e-04
 Reference value :  1.75502e-04
 Reference value :  1.75503e-04
 Reference value :  1.75504e-04
 Reference value :  1.75506e-04
 Reference value :  1.75508e-04
 Reference value :  1.75510e-04
 Reference value :  1.75513e-04
 Reference value :  1.75529e-04
 Reference value :  1.75750e-04
 Reference value :  1.75750e-04
 Reference value :  1.75750e-04
 Reference value :  1.75751e-04
 Reference value :  1.75751e-04
 Reference value :  1.75753e-04
 Reference value :  1.75754e-04
 Reference value :  1.75757e-04
 Reference value :  1.75761e-04
 Reference value :  1.75784e-04
 Reference value :  1.75840e-04
 Reference value :  1.76000e-04
 Reference value :  1.76000e-04
 Reference value :  1.76000e-04
 Reference value :  1.76001e-04
 Reference value :  1.76002e-04
 Reference value :  1.76003e-04
 Reference value :  1.76004e-04
 Reference value :  1.76004e-04
 Reference value :  1.76006e-04
 Reference value :  1.76006e-04
 Reference value :  1.76008e-04
 Reference value :  1.76011e-04
 Reference value :  1.76013e-04
 Reference value :  1.76014e-04
 Reference value :  1.76016e-04
 Reference value :  1.76018e-04
 Reference value :  1.76021e-04
 Reference value :  1.76031e-04
 Reference value :  1.76043e-04
 Reference value :  1.76056e-04
 Reference value :  1.76068e-04
 Reference value :  1.76089e-04
 Reference value :  1.76138e-04
 Reference value :  1.76250e-04
 Reference value :  1.76250e-04
 Reference value :  1.76250e-04
 Reference value :  1.76250e-04
 Reference value :  1.76251e-04
 Reference value :  1.76251e-04
 Reference value :  1.76252e-04
 Reference value :  1.76254e-04
 Reference value :  1.76255e-04
 Reference value :  1.76257e-04
 Reference value :  1.76262e-04
 Reference value :  1.76338e-04
 Reference value :  1.76500e-04
 Reference value :  1.76500e-04
 Reference value :  1.76501e-04
 Reference value :  1.76503e-04
 Reference value :  1.76505e-04
 Reference value :  1.76507e-04
 Reference value :  1.76510e-04
 Reference value :  1.76548e-04
 Reference value :  1.76750e-04
 Reference value :  1.76750e-04
 Reference value :  1.76750e-04
 Reference value :  1.76751e-04
 Reference value :  1.76752e-04
 Reference value :  1.76754e-04
 Reference value :  1.76754e-04
 Reference value :  1.76756e-04
 Reference value :  1.76758e-04
 Reference value :  1.76759e-04
 Reference value :  1.76762e-04
 Reference value :  1.76775e-04
 Reference value :  1.76848e-04
 Reference value :  1.77000e-04
 Reference value :  1.77000e-04
 Reference value :  1.77000e-04
 Reference value :  1.77000e-04
 Reference value :  1.77000e-04
 Reference value :  1.77001e-04
 Reference value :  1.77002e-04
 Reference value :  1.77003e-04
 Reference value :  1.77004e-04
 Reference value :  1.77006e-04
 Reference value :  1.77008e-04
 Reference value :  1.77012e-04
 Reference value :  1.77014e-04
 Reference value :  1.77017e-04
 Reference value :  1.77026e-04
 Reference value :  1.77085e-04
 Reference value :  1.77108e-04
 Reference value :  1.77140e-04
 Reference value :  1.77230e-04
 Reference value :  1.77250e-04
 Reference value :  1.77250e-04
 Reference value :  1.77251e-04
 Reference value :  1.77253e-04
 Reference value :  1.77254e-04
 Reference value :  1.77257e-04
 Reference value :  1.77261e-04
 Reference value :  1.77305e-04
 Reference value :  1.77500e-04
 Reference value :  1.77500e-04
 Reference value :  1.77500e-04
 Reference value :  1.77500e-04
 Reference value :  1.77501e-04
 Reference value :  1.77502e-04
 Reference value :  1.77503e-04
 Reference value :  1.77504e-04
 Reference value :  1.77506e-04
 Reference value :  1.77508e-04
 Reference value :  1.77510e-04
 Reference value :  1.77512e-04
 Reference value :  1.77516e-04
 Reference value :  1.77528e-04
 Reference value :  1.77642e-04
 Reference value :  1.77750e-04
 Reference value :  1.77750e-04
 Reference value :  1.77750e-04
 Reference value :  1.77751e-04
 Reference value :  1.77751e-04
 Reference value :  1.77753e-04
 Reference value :  1.77754e-04
 Reference value :  1.77757e-04
 Reference value :  1.77773e-04
 Reference value :  1.78000e-04
 Reference value :  1.78000e-04
 Reference value :  1.78000e-04
 Reference value :  1.78000e-04
 Reference value :  1.78001e-04
 Reference value :  1.78002e-04
 Reference value :  1.78003e-04
 Reference value :  1.78004e-04
 Reference value :  1.78006e-04
 Reference value :  1.78007e-04
 Reference value :  1.78008e-04
 Reference value :  1.78010e-04
 Reference value :  1.78018e-04
 Reference value :  1.78079e-04
 Reference value :  1.78250e-04
 Reference value :  1.78250e-04
 Reference value :  1.78251e-04
 Reference value :  1.78252e-04
 Reference value :  1.78254e-04
 Reference value :  1.78258e-04
 Reference value :  1.78271e-04
 Reference value :  1.78296e-04
 Reference value :  1.78497e-04
No. of Data Rows : 26027
ngspice-44 done
