
Note: Compatibility modes selected: hs a


Circuit: ** sch_path: /home/ece/cace/sar-adc-using-sky130-pdk/runs/run_2025-09-10_00-53-13/parameters/dnl/run_0/sar_output_dnl.sch

option SCALE: Scale is set to 1e-06 for instance and model parameters
option SCALE: Scale is set to 1e-06 for instance and model parameters
option SCALE: Scale is set to 1e-06 for instance and model parameters
option SCALE: Scale is set to 1e-06 for instance and model parameters
Doing analysis at TEMP = 27.000000 and TNOM = 27.000000

Using KLU as Direct Linear Solver
Operating point simulation skipped by 'uic',
  now using transient initial conditions.
 Reference value :  1.00000e-12
 Reference value :  1.02772e-12
 Reference value :  1.08316e-12
 Reference value :  1.19404e-12
 Reference value :  1.33846e-12
 Reference value :  1.62729e-12
 Reference value :  2.20497e-12
 Reference value :  3.05087e-12
 Reference value :  3.95637e-12
 Reference value :  5.17330e-12
 Reference value :  6.90463e-12
 Reference value :  1.02124e-11
 Reference value :  1.38960e-11
 Reference value :  2.07991e-11
 Reference value :  2.75150e-11
 Reference value :  3.66197e-11
 Reference value :  4.75916e-11
 Reference value :  6.53202e-11
 Reference value :  8.60727e-11
 Reference value :  1.00000e-10
 Reference value :  1.01137e-10
 Reference value :  1.03410e-10
 Reference value :  1.07956e-10
 Reference value :  1.17049e-10
 Reference value :  1.35234e-10
 Reference value :  1.71605e-10
 Reference value :  2.44346e-10
 Reference value :  3.89828e-10
 Reference value :  5.48754e-10
 Reference value :  8.03216e-10
 Reference value :  1.14210e-09
 Reference value :  1.56320e-09
 Reference value :  2.18358e-09
 Reference value :  2.83240e-09
 Reference value :  3.90849e-09
 Reference value :  4.71856e-09
 Reference value :  5.58123e-09
 Reference value :  6.78910e-09
 Reference value :  7.88948e-09
 Reference value :  9.24000e-09
 Reference value :  1.01347e-08
 Reference value :  1.09698e-08
 Reference value :  1.19081e-08
 Reference value :  1.29182e-08
 Reference value :  1.49385e-08
 Reference value :  1.77340e-08
 Reference value :  2.19383e-08
 Reference value :  2.65878e-08
 Reference value :  3.01583e-08
 Reference value :  3.39128e-08
 Reference value :  3.70606e-08
 Reference value :  4.03969e-08
 Reference value :  4.52764e-08
 Reference value :  5.23116e-08
 Reference value :  6.41148e-08
 Reference value :  8.62351e-08
 Reference value :  1.26120e-07
 Reference value :  1.88735e-07
 Reference value :  2.50100e-07
 Reference value :  2.50110e-07
 Reference value :  2.50130e-07
 Reference value :  2.50170e-07
 Reference value :  2.50200e-07
 Reference value :  2.50201e-07
 Reference value :  2.50202e-07
 Reference value :  2.50204e-07
 Reference value :  2.50208e-07
 Reference value :  2.50216e-07
 Reference value :  2.50233e-07
 Reference value :  2.50267e-07
 Reference value :  2.50334e-07
 Reference value :  2.50416e-07
 Reference value :  2.50578e-07
 Reference value :  2.50740e-07
 Reference value :  2.51064e-07
 Reference value :  2.51433e-07
 Reference value :  2.52000e-07
 Reference value :  2.52605e-07
 Reference value :  2.53305e-07
 Reference value :  2.54251e-07
 Reference value :  2.55267e-07
 Reference value :  2.56209e-07
 Reference value :  2.57137e-07
 Reference value :  2.58161e-07
 Reference value :  2.59137e-07
 Reference value :  2.60806e-07
 Reference value :  2.63151e-07
 Reference value :  2.65566e-07
 Reference value :  2.69724e-07
 Reference value :  2.75757e-07
 Reference value :  2.87822e-07
 Reference value :  3.11952e-07
 Reference value :  3.56894e-07
 Reference value :  4.46777e-07
 Reference value :  5.00000e-07
 Reference value :  5.00010e-07
 Reference value :  5.00030e-07
 Reference value :  5.00070e-07
 Reference value :  5.00100e-07
 Reference value :  5.00104e-07
 Reference value :  5.00113e-07
 Reference value :  5.00130e-07
 Reference value :  5.00164e-07
 Reference value :  5.00231e-07
 Reference value :  5.00367e-07
 Reference value :  5.00555e-07
 Reference value :  5.00931e-07
 Reference value :  5.01441e-07
 Reference value :  5.01988e-07
 Reference value :  5.02572e-07
 Reference value :  5.03299e-07
 Reference value :  5.03988e-07
 Reference value :  5.04868e-07
 Reference value :  5.05732e-07
 Reference value :  5.06712e-07
 Reference value :  5.07962e-07
 Reference value :  5.09473e-07
 Reference value :  5.11506e-07
 Reference value :  5.13937e-07
 Reference value :  5.15835e-07
 Reference value :  5.17886e-07
 Reference value :  5.20499e-07
 Reference value :  5.23122e-07
 Reference value :  5.25907e-07
 Reference value :  5.31216e-07
 Reference value :  5.38401e-07
 Reference value :  5.48666e-07
 Reference value :  5.69196e-07
 Reference value :  5.99927e-07
 Reference value :  6.61390e-07
 Reference value :  7.50100e-07
 Reference value :  7.50110e-07
 Reference value :  7.50130e-07
 Reference value :  7.50170e-07
 Reference value :  7.50200e-07
 Reference value :  7.50201e-07
 Reference value :  7.50202e-07
 Reference value :  7.50205e-07
 Reference value :  7.50211e-07
 Reference value :  7.50223e-07
 Reference value :  7.50247e-07
 Reference value :  7.50295e-07
 Reference value :  7.50390e-07
 Reference value :  7.50580e-07
 Reference value :  7.50956e-07
 Reference value :  7.51478e-07
 Reference value :  7.52136e-07
 Reference value :  7.52787e-07
 Reference value :  7.53536e-07
 Reference value :  7.54575e-07
 Reference value :  7.55319e-07
 Reference value :  7.56167e-07
 Reference value :  7.56918e-07
 Reference value :  7.57752e-07
 Reference value :  7.58784e-07
 Reference value :  7.59912e-07
 Reference value :  7.62169e-07
 Reference value :  7.64635e-07
 Reference value :  7.68698e-07
 Reference value :  7.74006e-07
 Reference value :  7.84623e-07
 Reference value :  8.05856e-07
 Reference value :  8.48322e-07
 Reference value :  9.33255e-07
 Reference value :  1.00000e-06
 Reference value :  1.00001e-06
 Reference value :  1.00003e-06
 Reference value :  1.00007e-06
 Reference value :  1.00010e-06
 Reference value :  1.00010e-06
 Reference value :  1.00011e-06
 Reference value :  1.00013e-06
 Reference value :  1.00016e-06
 Reference value :  1.00023e-06
 Reference value :  1.00037e-06
 Reference value :  1.00055e-06
 Reference value :  1.00093e-06
 Reference value :  1.00144e-06
 Reference value :  1.00198e-06
 Reference value :  1.00256e-06
 Reference value :  1.00321e-06
 Reference value :  1.00388e-06
 Reference value :  1.00467e-06
 Reference value :  1.00549e-06
 Reference value :  1.00635e-06
 Reference value :  1.00731e-06
 Reference value :  1.00811e-06
 Reference value :  1.00905e-06
 Reference value :  1.00998e-06
 Reference value :  1.01119e-06
 Reference value :  1.01294e-06
 Reference value :  1.01554e-06
 Reference value :  1.01799e-06
 Reference value :  1.02017e-06
 Reference value :  1.02200e-06
 Reference value :  1.02397e-06
 Reference value :  1.02579e-06
 Reference value :  1.02762e-06
 Reference value :  1.02996e-06
 Reference value :  1.03217e-06
 Reference value :  1.03521e-06
 Reference value :  1.03941e-06
 Reference value :  1.04517e-06
 Reference value :  1.05440e-06
 Reference value :  1.06831e-06
 Reference value :  1.09078e-06
 Reference value :  1.12710e-06
 Reference value :  1.18568e-06
 Reference value :  1.25010e-06
 Reference value :  1.25011e-06
 Reference value :  1.25013e-06
 Reference value :  1.25017e-06
 Reference value :  1.25020e-06
 Reference value :  1.25020e-06
 Reference value :  1.25020e-06
 Reference value :  1.25021e-06
 Reference value :  1.25021e-06
 Reference value :  1.25022e-06
 Reference value :  1.25025e-06
 Reference value :  1.25029e-06
 Reference value :  1.25039e-06
 Reference value :  1.25058e-06
 Reference value :  1.25091e-06
 Reference value :  1.25146e-06
 Reference value :  1.25208e-06
 Reference value :  1.25276e-06
 Reference value :  1.25349e-06
 Reference value :  1.25452e-06
 Reference value :  1.25527e-06
 Reference value :  1.25613e-06
 Reference value :  1.25702e-06
 Reference value :  1.25795e-06
 Reference value :  1.25925e-06
 Reference value :  1.26108e-06
 Reference value :  1.26327e-06
 Reference value :  1.26648e-06
 Reference value :  1.27075e-06
 Reference value :  1.27929e-06
 Reference value :  1.29638e-06
 Reference value :  1.32620e-06
 Reference value :  1.38584e-06
 Reference value :  1.49965e-06
 Reference value :  1.50000e-06
 Reference value :  1.50001e-06
 Reference value :  1.50002e-06
 Reference value :  1.50004e-06
 Reference value :  1.50008e-06
 Reference value :  1.50010e-06
 Reference value :  1.50010e-06
 Reference value :  1.50011e-06
 Reference value :  1.50012e-06
 Reference value :  1.50015e-06
 Reference value :  1.50019e-06
 Reference value :  1.50029e-06
 Reference value :  1.50045e-06
 Reference value :  1.50070e-06
 Reference value :  1.50122e-06
 Reference value :  1.50186e-06
 Reference value :  1.50262e-06
 Reference value :  1.50337e-06
 Reference value :  1.50407e-06
 Reference value :  1.50495e-06
 Reference value :  1.50584e-06
 Reference value :  1.50677e-06
 Reference value :  1.50818e-06
 Reference value :  1.50963e-06
 Reference value :  1.51075e-06
 Reference value :  1.51204e-06
 Reference value :  1.51361e-06
 Reference value :  1.51502e-06
 Reference value :  1.51651e-06
 Reference value :  1.51805e-06
 Reference value :  1.51985e-06
 Reference value :  1.52344e-06
 Reference value :  1.52869e-06
 Reference value :  1.53918e-06
 Reference value :  1.56017e-06
 Reference value :  1.60185e-06
 Reference value :  1.68519e-06
 Reference value :  1.75010e-06
 Reference value :  1.75011e-06
 Reference value :  1.75013e-06
 Reference value :  1.75017e-06
 Reference value :  1.75020e-06
 Reference value :  1.75020e-06
 Reference value :  1.75020e-06
 Reference value :  1.75021e-06
 Reference value :  1.75021e-06
 Reference value :  1.75022e-06
 Reference value :  1.75025e-06
 Reference value :  1.75029e-06
 Reference value :  1.75039e-06
 Reference value :  1.75058e-06
 Reference value :  1.75091e-06
 Reference value :  1.75146e-06
 Reference value :  1.75209e-06
 Reference value :  1.75275e-06
 Reference value :  1.75348e-06
 Reference value :  1.75451e-06
 Reference value :  1.75525e-06
 Reference value :  1.75610e-06
 Reference value :  1.75684e-06
 Reference value :  1.75766e-06
 Reference value :  1.75867e-06
 Reference value :  1.75979e-06
 Reference value :  1.76204e-06
 Reference value :  1.76441e-06
 Reference value :  1.76839e-06
 Reference value :  1.77337e-06
 Reference value :  1.78332e-06
 Reference value :  1.80322e-06
 Reference value :  1.84302e-06
 Reference value :  1.92262e-06
 Reference value :  2.00000e-06
 Reference value :  2.00001e-06
 Reference value :  2.00003e-06
 Reference value :  2.00007e-06
 Reference value :  2.00010e-06
 Reference value :  2.00010e-06
 Reference value :  2.00011e-06
 Reference value :  2.00013e-06
 Reference value :  2.00016e-06
 Reference value :  2.00023e-06
 Reference value :  2.00037e-06
 Reference value :  2.00054e-06
 Reference value :  2.00090e-06
 Reference value :  2.00141e-06
 Reference value :  2.00196e-06
 Reference value :  2.00255e-06
 Reference value :  2.00320e-06
 Reference value :  2.00387e-06
 Reference value :  2.00463e-06
 Reference value :  2.00545e-06
 Reference value :  2.00635e-06
 Reference value :  2.00728e-06
 Reference value :  2.00814e-06
 Reference value :  2.00905e-06
 Reference value :  2.01000e-06
 Reference value :  2.01123e-06
 Reference value :  2.01292e-06
 Reference value :  2.01555e-06
 Reference value :  2.01806e-06
 Reference value :  2.02023e-06
 Reference value :  2.02202e-06
 Reference value :  2.02375e-06
 Reference value :  2.02560e-06
 Reference value :  2.02732e-06
 Reference value :  2.02946e-06
 Reference value :  2.03163e-06
 Reference value :  2.03428e-06
 Reference value :  2.03811e-06
 Reference value :  2.04348e-06
 Reference value :  2.05204e-06
 Reference value :  2.06558e-06
 Reference value :  2.08756e-06
 Reference value :  2.11391e-06
 Reference value :  2.14021e-06
 Reference value :  2.16021e-06
 Reference value :  2.17458e-06
 Reference value :  2.18796e-06
 Reference value :  2.19588e-06
 Reference value :  2.20541e-06
 Reference value :  2.21735e-06
 Reference value :  2.23131e-06
 Reference value :  2.25010e-06
 Reference value :  2.25011e-06
 Reference value :  2.25013e-06
 Reference value :  2.25017e-06
 Reference value :  2.25020e-06
 Reference value :  2.25020e-06
 Reference value :  2.25020e-06
 Reference value :  2.25021e-06
 Reference value :  2.25021e-06
 Reference value :  2.25022e-06
 Reference value :  2.25025e-06
 Reference value :  2.25030e-06
 Reference value :  2.25039e-06
 Reference value :  2.25059e-06
 Reference value :  2.25093e-06
 Reference value :  2.25146e-06
 Reference value :  2.25210e-06
 Reference value :  2.25276e-06
 Reference value :  2.25350e-06
 Reference value :  2.25452e-06
 Reference value :  2.25523e-06
 Reference value :  2.25605e-06
 Reference value :  2.25696e-06
 Reference value :  2.25789e-06
 Reference value :  2.25913e-06
 Reference value :  2.26114e-06
 Reference value :  2.26324e-06
 Reference value :  2.26651e-06
 Reference value :  2.27068e-06
 Reference value :  2.27903e-06
 Reference value :  2.29573e-06
 Reference value :  2.32507e-06
 Reference value :  2.38375e-06
 Reference value :  2.47711e-06
 Reference value :  2.50000e-06
 Reference value :  2.50001e-06
 Reference value :  2.50003e-06
 Reference value :  2.50007e-06
 Reference value :  2.50010e-06
 Reference value :  2.50010e-06
 Reference value :  2.50011e-06
 Reference value :  2.50013e-06
 Reference value :  2.50016e-06
 Reference value :  2.50023e-06
 Reference value :  2.50037e-06
 Reference value :  2.50054e-06
 Reference value :  2.50090e-06
 Reference value :  2.50141e-06
 Reference value :  2.50196e-06
 Reference value :  2.50251e-06
 Reference value :  2.50321e-06
 Reference value :  2.50385e-06
 Reference value :  2.50462e-06
 Reference value :  2.50543e-06
 Reference value :  2.50634e-06
 Reference value :  2.50757e-06
 Reference value :  2.50879e-06
 Reference value :  2.51012e-06
 Reference value :  2.51161e-06
 Reference value :  2.51308e-06
 Reference value :  2.51454e-06
 Reference value :  2.51610e-06
 Reference value :  2.51768e-06
 Reference value :  2.51946e-06
 Reference value :  2.52303e-06
 Reference value :  2.53016e-06
 Reference value :  2.54265e-06
 Reference value :  2.56764e-06
 Reference value :  2.61761e-06
 Reference value :  2.71756e-06
 Reference value :  2.75010e-06
 Reference value :  2.75011e-06
 Reference value :  2.75013e-06
 Reference value :  2.75017e-06
 Reference value :  2.75020e-06
 Reference value :  2.75020e-06
 Reference value :  2.75020e-06
 Reference value :  2.75021e-06
 Reference value :  2.75021e-06
 Reference value :  2.75022e-06
 Reference value :  2.75025e-06
 Reference value :  2.75029e-06
 Reference value :  2.75039e-06
 Reference value :  2.75058e-06
 Reference value :  2.75091e-06
 Reference value :  2.75145e-06
 Reference value :  2.75208e-06
 Reference value :  2.75275e-06
 Reference value :  2.75348e-06
 Reference value :  2.75450e-06
 Reference value :  2.75524e-06
 Reference value :  2.75609e-06
 Reference value :  2.75684e-06
 Reference value :  2.75766e-06
 Reference value :  2.75867e-06
 Reference value :  2.75979e-06
 Reference value :  2.76093e-06
 Reference value :  2.76260e-06
 Reference value :  2.76447e-06
 Reference value :  2.76698e-06
 Reference value :  2.77020e-06
 Reference value :  2.77483e-06
 Reference value :  2.78409e-06
 Reference value :  2.80023e-06
 Reference value :  2.83249e-06
 Reference value :  2.89702e-06
 Reference value :  3.00000e-06
 Reference value :  3.00001e-06
 Reference value :  3.00003e-06
 Reference value :  3.00007e-06
 Reference value :  3.00010e-06
 Reference value :  3.00010e-06
 Reference value :  3.00011e-06
 Reference value :  3.00013e-06
 Reference value :  3.00016e-06
 Reference value :  3.00023e-06
 Reference value :  3.00037e-06
 Reference value :  3.00054e-06
 Reference value :  3.00090e-06
 Reference value :  3.00141e-06
 Reference value :  3.00196e-06
 Reference value :  3.00254e-06
 Reference value :  3.00319e-06
 Reference value :  3.00387e-06
 Reference value :  3.00463e-06
 Reference value :  3.00544e-06
 Reference value :  3.00628e-06
 Reference value :  3.00707e-06
 Reference value :  3.00795e-06
 Reference value :  3.00886e-06
 Reference value :  3.00977e-06
 Reference value :  3.01109e-06
 Reference value :  3.01258e-06
 Reference value :  3.01474e-06
 Reference value :  3.01631e-06
 Reference value :  3.01799e-06
 Reference value :  3.01978e-06
 Reference value :  3.02119e-06
 Reference value :  3.02259e-06
 Reference value :  3.02426e-06
 Reference value :  3.02585e-06
 Reference value :  3.02734e-06
 Reference value :  3.02929e-06
 Reference value :  3.03172e-06
 Reference value :  3.03434e-06
 Reference value :  3.03619e-06
 Reference value :  3.03801e-06
 Reference value :  3.03974e-06
 Reference value :  3.04192e-06
 Reference value :  3.04486e-06
 Reference value :  3.04857e-06
 Reference value :  3.05417e-06
 Reference value :  3.06202e-06
 Reference value :  3.07516e-06
 Reference value :  3.09620e-06
 Reference value :  3.12991e-06
 Reference value :  3.18621e-06
 Reference value :  3.22109e-06
 Reference value :  3.25010e-06
 Reference value :  3.25011e-06
 Reference value :  3.25013e-06
 Reference value :  3.25017e-06
 Reference value :  3.25020e-06
 Reference value :  3.25020e-06
 Reference value :  3.25020e-06
 Reference value :  3.25021e-06
 Reference value :  3.25021e-06
 Reference value :  3.25022e-06
 Reference value :  3.25025e-06
 Reference value :  3.25029e-06
 Reference value :  3.25039e-06
 Reference value :  3.25058e-06
 Reference value :  3.25091e-06
 Reference value :  3.25145e-06
 Reference value :  3.25208e-06
 Reference value :  3.25275e-06
 Reference value :  3.25348e-06
 Reference value :  3.25450e-06
 Reference value :  3.25525e-06
 Reference value :  3.25611e-06
 Reference value :  3.25699e-06
 Reference value :  3.25791e-06
 Reference value :  3.25923e-06
 Reference value :  3.26097e-06
 Reference value :  3.26320e-06
 Reference value :  3.26630e-06
 Reference value :  3.27060e-06
 Reference value :  3.27921e-06
 Reference value :  3.29602e-06
 Reference value :  3.32510e-06
 Reference value :  3.38327e-06
 Reference value :  3.49721e-06
 Reference value :  3.50000e-06
 Reference value :  3.50001e-06
 Reference value :  3.50003e-06
 Reference value :  3.50007e-06
 Reference value :  3.50010e-06
 Reference value :  3.50010e-06
 Reference value :  3.50011e-06
 Reference value :  3.50013e-06
 Reference value :  3.50016e-06
 Reference value :  3.50023e-06
 Reference value :  3.50037e-06
 Reference value :  3.50054e-06
 Reference value :  3.50090e-06
 Reference value :  3.50141e-06
 Reference value :  3.50196e-06
 Reference value :  3.50255e-06
 Reference value :  3.50319e-06
 Reference value :  3.50387e-06
 Reference value :  3.50464e-06
 Reference value :  3.50546e-06
 Reference value :  3.50632e-06
 Reference value :  3.50752e-06
 Reference value :  3.50872e-06
 Reference value :  3.51001e-06
 Reference value :  3.51145e-06
 Reference value :  3.51292e-06
 Reference value :  3.51433e-06
 Reference value :  3.51583e-06
 Reference value :  3.51733e-06
 Reference value :  3.51907e-06
 Reference value :  3.52255e-06
 Reference value :  3.52872e-06
 Reference value :  3.54106e-06
 Reference value :  3.56573e-06
 Reference value :  3.61507e-06
 Reference value :  3.71376e-06
 Reference value :  3.75010e-06
 Reference value :  3.75011e-06
 Reference value :  3.75013e-06
 Reference value :  3.75017e-06
 Reference value :  3.75020e-06
 Reference value :  3.75020e-06
 Reference value :  3.75020e-06
 Reference value :  3.75021e-06
 Reference value :  3.75021e-06
 Reference value :  3.75022e-06
 Reference value :  3.75025e-06
 Reference value :  3.75029e-06
 Reference value :  3.75039e-06
 Reference value :  3.75058e-06
 Reference value :  3.75091e-06
 Reference value :  3.75145e-06
 Reference value :  3.75208e-06
 Reference value :  3.75275e-06
 Reference value :  3.75348e-06
 Reference value :  3.75450e-06
 Reference value :  3.75523e-06
 Reference value :  3.75609e-06
 Reference value :  3.75683e-06
 Reference value :  3.75766e-06
 Reference value :  3.75866e-06
 Reference value :  3.75978e-06
 Reference value :  3.76202e-06
 Reference value :  3.76439e-06
 Reference value :  3.76837e-06
 Reference value :  3.77331e-06
 Reference value :  3.78321e-06
 Reference value :  3.80299e-06
 Reference value :  3.84175e-06
 Reference value :  3.91927e-06
 Reference value :  4.00000e-06
 Reference value :  4.00001e-06
 Reference value :  4.00003e-06
 Reference value :  4.00007e-06
 Reference value :  4.00010e-06
 Reference value :  4.00010e-06
 Reference value :  4.00011e-06
 Reference value :  4.00013e-06
 Reference value :  4.00016e-06
 Reference value :  4.00023e-06
 Reference value :  4.00037e-06
 Reference value :  4.00054e-06
 Reference value :  4.00090e-06
 Reference value :  4.00141e-06
 Reference value :  4.00196e-06
 Reference value :  4.00255e-06
 Reference value :  4.00320e-06
 Reference value :  4.00387e-06
 Reference value :  4.00463e-06
 Reference value :  4.00545e-06
 Reference value :  4.00635e-06
 Reference value :  4.00728e-06
 Reference value :  4.00808e-06
 Reference value :  4.00904e-06
 Reference value :  4.00996e-06
 Reference value :  4.01119e-06
 Reference value :  4.01292e-06
 Reference value :  4.01527e-06
 Reference value :  4.01786e-06
 Reference value :  4.02004e-06
 Reference value :  4.02176e-06
 Reference value :  4.02338e-06
 Reference value :  4.02524e-06
 Reference value :  4.02693e-06
 Reference value :  4.02911e-06
 Reference value :  4.03111e-06
 Reference value :  4.03391e-06
 Reference value :  4.03762e-06
 Reference value :  4.04347e-06
 Reference value :  4.05306e-06
 Reference value :  4.06875e-06
 Reference value :  4.08804e-06
 Reference value :  4.10340e-06
 Reference value :  4.11938e-06
 Reference value :  4.13974e-06
 Reference value :  4.16144e-06
 Reference value :  4.18815e-06
 Reference value :  4.22116e-06
 Reference value :  4.25010e-06
 Reference value :  4.25011e-06
 Reference value :  4.25013e-06
 Reference value :  4.25017e-06
 Reference value :  4.25020e-06
 Reference value :  4.25020e-06
 Reference value :  4.25020e-06
 Reference value :  4.25021e-06
 Reference value :  4.25021e-06
 Reference value :  4.25022e-06
 Reference value :  4.25025e-06
 Reference value :  4.25029e-06
 Reference value :  4.25039e-06
 Reference value :  4.25058e-06
 Reference value :  4.25091e-06
 Reference value :  4.25145e-06
 Reference value :  4.25208e-06
 Reference value :  4.25275e-06
 Reference value :  4.25348e-06
 Reference value :  4.25449e-06
 Reference value :  4.25524e-06
 Reference value :  4.25611e-06
 Reference value :  4.25698e-06
 Reference value :  4.25790e-06
 Reference value :  4.25923e-06
 Reference value :  4.26096e-06
 Reference value :  4.26323e-06
 Reference value :  4.26630e-06
 Reference value :  4.27066e-06
 Reference value :  4.27936e-06
 Reference value :  4.29604e-06
 Reference value :  4.32524e-06
 Reference value :  4.38364e-06
 Reference value :  4.50000e-06
 Reference value :  4.50001e-06
 Reference value :  4.50003e-06
 Reference value :  4.50007e-06
 Reference value :  4.50010e-06
 Reference value :  4.50010e-06
 Reference value :  4.50011e-06
 Reference value :  4.50013e-06
 Reference value :  4.50016e-06
 Reference value :  4.50023e-06
 Reference value :  4.50037e-06
 Reference value :  4.50055e-06
 Reference value :  4.50091e-06
 Reference value :  4.50142e-06
 Reference value :  4.50197e-06
 Reference value :  4.50255e-06
 Reference value :  4.50320e-06
 Reference value :  4.50387e-06
 Reference value :  4.50464e-06
 Reference value :  4.50546e-06
 Reference value :  4.50632e-06
 Reference value :  4.50752e-06
 Reference value :  4.50872e-06
 Reference value :  4.50993e-06
 Reference value :  4.51126e-06
 Reference value :  4.51286e-06
 Reference value :  4.51435e-06
 Reference value :  4.51582e-06
 Reference value :  4.51739e-06
 Reference value :  4.51919e-06
 Reference value :  4.52243e-06
 Reference value :  4.52729e-06
 Reference value :  4.53701e-06
 Reference value :  4.55581e-06
 Reference value :  4.59255e-06
 Reference value :  4.66605e-06
 Reference value :  4.75010e-06
 Reference value :  4.75011e-06
 Reference value :  4.75013e-06
 Reference value :  4.75017e-06
 Reference value :  4.75020e-06
 Reference value :  4.75020e-06
 Reference value :  4.75020e-06
 Reference value :  4.75021e-06
 Reference value :  4.75021e-06
 Reference value :  4.75022e-06
 Reference value :  4.75025e-06
 Reference value :  4.75029e-06
 Reference value :  4.75039e-06
 Reference value :  4.75058e-06
 Reference value :  4.75091e-06
 Reference value :  4.75145e-06
 Reference value :  4.75208e-06
 Reference value :  4.75274e-06
 Reference value :  4.75347e-06
 Reference value :  4.75449e-06
 Reference value :  4.75522e-06
 Reference value :  4.75608e-06
 Reference value :  4.75682e-06
 Reference value :  4.75764e-06
 Reference value :  4.75864e-06
 Reference value :  4.75976e-06
 Reference value :  4.76198e-06
 Reference value :  4.76434e-06
 Reference value :  4.76829e-06
 Reference value :  4.77318e-06
 Reference value :  4.78297e-06
 Reference value :  4.80255e-06
 Reference value :  4.84054e-06
 Reference value :  4.91653e-06
 Reference value :  5.00000e-06
 Reference value :  5.00001e-06
 Reference value :  5.00003e-06
 Reference value :  5.00007e-06
 Reference value :  5.00010e-06
 Reference value :  5.00010e-06
 Reference value :  5.00011e-06
 Reference value :  5.00013e-06
 Reference value :  5.00016e-06
 Reference value :  5.00023e-06
 Reference value :  5.00037e-06
 Reference value :  5.00054e-06
 Reference value :  5.00090e-06
 Reference value :  5.00141e-06
 Reference value :  5.00196e-06
 Reference value :  5.00254e-06
 Reference value :  5.00320e-06
 Reference value :  5.00389e-06
 Reference value :  5.00465e-06
 Reference value :  5.00547e-06
 Reference value :  5.00635e-06
 Reference value :  5.00731e-06
 Reference value :  5.00809e-06
 Reference value :  5.00898e-06
 Reference value :  5.00996e-06
 Reference value :  5.01112e-06
 Reference value :  5.01297e-06
 Reference value :  5.01548e-06
 Reference value :  5.01798e-06
 Reference value :  5.02017e-06
 Reference value :  5.02189e-06
 Reference value :  5.02349e-06
 Reference value :  5.02507e-06
 Reference value :  5.02678e-06
 Reference value :  5.02870e-06
 Reference value :  5.03073e-06
 Reference value :  5.03339e-06
 Reference value :  5.03711e-06
 Reference value :  5.04321e-06
 Reference value :  5.05027e-06
 Reference value :  5.05915e-06
 Reference value :  5.06832e-06
 Reference value :  5.07478e-06
 Reference value :  5.08111e-06
 Reference value :  5.08846e-06
 Reference value :  5.09535e-06
 Reference value :  5.10406e-06
 Reference value :  5.11307e-06
 Reference value :  5.12867e-06
 Reference value :  5.13944e-06
 Reference value :  5.14605e-06
 Reference value :  5.15345e-06
 Reference value :  5.16122e-06
 Reference value :  5.16719e-06
 Reference value :  5.17498e-06
 Reference value :  5.19056e-06
 Reference value :  5.21318e-06
 Reference value :  5.24704e-06
 Reference value :  5.25010e-06
 Reference value :  5.25011e-06
 Reference value :  5.25013e-06
 Reference value :  5.25017e-06
 Reference value :  5.25020e-06
 Reference value :  5.25020e-06
 Reference value :  5.25020e-06
 Reference value :  5.25021e-06
 Reference value :  5.25021e-06
 Reference value :  5.25022e-06
 Reference value :  5.25025e-06
 Reference value :  5.25029e-06
 Reference value :  5.25039e-06
 Reference value :  5.25058e-06
 Reference value :  5.25091e-06
 Reference value :  5.25145e-06
 Reference value :  5.25207e-06
 Reference value :  5.25274e-06
 Reference value :  5.25347e-06
 Reference value :  5.25449e-06
 Reference value :  5.25525e-06
 Reference value :  5.25612e-06
 Reference value :  5.25699e-06
 Reference value :  5.25791e-06
 Reference value :  5.25926e-06
 Reference value :  5.26099e-06
 Reference value :  5.26324e-06
 Reference value :  5.26635e-06
 Reference value :  5.27069e-06
 Reference value :  5.27937e-06
 Reference value :  5.29587e-06
 Reference value :  5.32459e-06
 Reference value :  5.38203e-06
 Reference value :  5.49690e-06
 Reference value :  5.50000e-06
 Reference value :  5.50001e-06
 Reference value :  5.50003e-06
 Reference value :  5.50007e-06
 Reference value :  5.50010e-06
 Reference value :  5.50010e-06
 Reference value :  5.50011e-06
 Reference value :  5.50013e-06
 Reference value :  5.50016e-06
 Reference value :  5.50023e-06
 Reference value :  5.50037e-06
 Reference value :  5.50054e-06
 Reference value :  5.50090e-06
 Reference value :  5.50141e-06
 Reference value :  5.50196e-06
 Reference value :  5.50255e-06
 Reference value :  5.50319e-06
 Reference value :  5.50387e-06
 Reference value :  5.50464e-06
 Reference value :  5.50546e-06
 Reference value :  5.50637e-06
 Reference value :  5.50755e-06
 Reference value :  5.50880e-06
 Reference value :  5.51000e-06
 Reference value :  5.51126e-06
 Reference value :  5.51270e-06
 Reference value :  5.51406e-06
 Reference value :  5.51547e-06
 Reference value :  5.51696e-06
 Reference value :  5.51869e-06
 Reference value :  5.52204e-06
 Reference value :  5.52702e-06
 Reference value :  5.53699e-06
 Reference value :  5.55692e-06
 Reference value :  5.59679e-06
 Reference value :  5.67653e-06
 Reference value :  5.75010e-06
 Reference value :  5.75011e-06
 Reference value :  5.75013e-06
 Reference value :  5.75017e-06
 Reference value :  5.75020e-06
 Reference value :  5.75020e-06
 Reference value :  5.75020e-06
 Reference value :  5.75021e-06
 Reference value :  5.75021e-06
 Reference value :  5.75022e-06
 Reference value :  5.75025e-06
 Reference value :  5.75029e-06
 Reference value :  5.75039e-06
 Reference value :  5.75058e-06
 Reference value :  5.75091e-06
 Reference value :  5.75145e-06
 Reference value :  5.75208e-06
 Reference value :  5.75274e-06
 Reference value :  5.75347e-06
 Reference value :  5.75449e-06
 Reference value :  5.75523e-06
 Reference value :  5.75609e-06
 Reference value :  5.75683e-06
 Reference value :  5.75766e-06
 Reference value :  5.75866e-06
 Reference value :  5.75977e-06
 Reference value :  5.76200e-06
 Reference value :  5.76437e-06
 Reference value :  5.76833e-06
 Reference value :  5.77326e-06
 Reference value :  5.78312e-06
 Reference value :  5.80283e-06
 Reference value :  5.84096e-06
 Reference value :  5.91721e-06
 Reference value :  6.00000e-06
 Reference value :  6.00001e-06
 Reference value :  6.00003e-06
 Reference value :  6.00007e-06
 Reference value :  6.00010e-06
 Reference value :  6.00010e-06
 Reference value :  6.00011e-06
 Reference value :  6.00013e-06
 Reference value :  6.00016e-06
 Reference value :  6.00023e-06
 Reference value :  6.00037e-06
 Reference value :  6.00054e-06
 Reference value :  6.00090e-06
 Reference value :  6.00141e-06
 Reference value :  6.00196e-06
 Reference value :  6.00255e-06
 Reference value :  6.00320e-06
 Reference value :  6.00388e-06
 Reference value :  6.00464e-06
 Reference value :  6.00545e-06
 Reference value :  6.00630e-06
 Reference value :  6.00724e-06
 Reference value :  6.00801e-06
 Reference value :  6.00887e-06
 Reference value :  6.00988e-06
 Reference value :  6.01100e-06
 Reference value :  6.01289e-06
 Reference value :  6.01530e-06
 Reference value :  6.01804e-06
 Reference value :  6.02027e-06
 Reference value :  6.02208e-06
 Reference value :  6.02379e-06
 Reference value :  6.02542e-06
 Reference value :  6.02715e-06
 Reference value :  6.02910e-06
 Reference value :  6.03125e-06
 Reference value :  6.03381e-06
 Reference value :  6.03762e-06
 Reference value :  6.04310e-06
 Reference value :  6.04992e-06
 Reference value :  6.05665e-06
 Reference value :  6.06175e-06
 Reference value :  6.06723e-06
 Reference value :  6.07243e-06
 Reference value :  6.07850e-06
 Reference value :  6.08842e-06
 Reference value :  6.09592e-06
 Reference value :  6.10497e-06
 Reference value :  6.11731e-06
 Reference value :  6.13754e-06
 Reference value :  6.16667e-06
 Reference value :  6.20165e-06
 Reference value :  6.23227e-06
 Reference value :  6.25010e-06
 Reference value :  6.25011e-06
 Reference value :  6.25013e-06
 Reference value :  6.25017e-06
 Reference value :  6.25020e-06
 Reference value :  6.25020e-06
 Reference value :  6.25020e-06
 Reference value :  6.25021e-06
 Reference value :  6.25021e-06
 Reference value :  6.25022e-06
 Reference value :  6.25025e-06
 Reference value :  6.25030e-06
 Reference value :  6.25039e-06
 Reference value :  6.25059e-06
 Reference value :  6.25093e-06
 Reference value :  6.25146e-06
 Reference value :  6.25210e-06
 Reference value :  6.25276e-06
 Reference value :  6.25349e-06
 Reference value :  6.25451e-06
 Reference value :  6.25525e-06
 Reference value :  6.25610e-06
 Reference value :  6.25698e-06
 Reference value :  6.25790e-06
 Reference value :  6.25920e-06
 Reference value :  6.26100e-06
 Reference value :  6.26320e-06
 Reference value :  6.26634e-06
 Reference value :  6.27061e-06
 Reference value :  6.27913e-06
 Reference value :  6.29101e-06
 Reference value :  6.30306e-06
 Reference value :  6.31811e-06
 Reference value :  6.34817e-06
 Reference value :  6.40828e-06
 Reference value :  6.48606e-06
 Reference value :  6.50000e-06
 Reference value :  6.50001e-06
 Reference value :  6.50003e-06
 Reference value :  6.50007e-06
 Reference value :  6.50010e-06
 Reference value :  6.50010e-06
 Reference value :  6.50011e-06
 Reference value :  6.50013e-06
 Reference value :  6.50016e-06
 Reference value :  6.50023e-06
 Reference value :  6.50037e-06
 Reference value :  6.50054e-06
 Reference value :  6.50090e-06
 Reference value :  6.50141e-06
 Reference value :  6.50196e-06
 Reference value :  6.50255e-06
 Reference value :  6.50319e-06
 Reference value :  6.50387e-06
 Reference value :  6.50464e-06
 Reference value :  6.50546e-06
 Reference value :  6.50632e-06
 Reference value :  6.50752e-06
 Reference value :  6.50872e-06
 Reference value :  6.51002e-06
 Reference value :  6.51147e-06
 Reference value :  6.51293e-06
 Reference value :  6.51434e-06
 Reference value :  6.51582e-06
 Reference value :  6.51744e-06
 Reference value :  6.51928e-06
 Reference value :  6.52263e-06
 Reference value :  6.52755e-06
 Reference value :  6.53720e-06
 Reference value :  6.55537e-06
 Reference value :  6.58976e-06
 Reference value :  6.65856e-06
 Reference value :  6.75010e-06
 Reference value :  6.75011e-06
 Reference value :  6.75013e-06
 Reference value :  6.75017e-06
 Reference value :  6.75020e-06
 Reference value :  6.75020e-06
 Reference value :  6.75020e-06
 Reference value :  6.75021e-06
 Reference value :  6.75021e-06
 Reference value :  6.75022e-06
 Reference value :  6.75025e-06
 Reference value :  6.75029e-06
 Reference value :  6.75039e-06
 Reference value :  6.75058e-06
 Reference value :  6.75091e-06
 Reference value :  6.75145e-06
 Reference value :  6.75208e-06
 Reference value :  6.75275e-06
 Reference value :  6.75348e-06
 Reference value :  6.75450e-06
 Reference value :  6.75523e-06
 Reference value :  6.75609e-06
 Reference value :  6.75683e-06
 Reference value :  6.75765e-06
 Reference value :  6.75866e-06
 Reference value :  6.75977e-06
 Reference value :  6.76200e-06
 Reference value :  6.76437e-06
 Reference value :  6.76833e-06
 Reference value :  6.77326e-06
 Reference value :  6.78312e-06
 Reference value :  6.80283e-06
 Reference value :  6.84092e-06
 Reference value :  6.91710e-06
 Reference value :  7.00000e-06
 Reference value :  7.00001e-06
 Reference value :  7.00003e-06
 Reference value :  7.00007e-06
 Reference value :  7.00010e-06
 Reference value :  7.00010e-06
 Reference value :  7.00011e-06
 Reference value :  7.00013e-06
 Reference value :  7.00016e-06
 Reference value :  7.00023e-06
 Reference value :  7.00037e-06
 Reference value :  7.00054e-06
 Reference value :  7.00090e-06
 Reference value :  7.00141e-06
 Reference value :  7.00196e-06
 Reference value :  7.00255e-06
 Reference value :  7.00320e-06
 Reference value :  7.00387e-06
 Reference value :  7.00463e-06
 Reference value :  7.00545e-06
 Reference value :  7.00635e-06
 Reference value :  7.00728e-06
 Reference value :  7.00805e-06
 Reference value :  7.00893e-06
 Reference value :  7.00993e-06
 Reference value :  7.01107e-06
 Reference value :  7.01294e-06
 Reference value :  7.01544e-06
 Reference value :  7.01822e-06
 Reference value :  7.02044e-06
 Reference value :  7.02228e-06
 Reference value :  7.02403e-06
 Reference value :  7.02570e-06
 Reference value :  7.02746e-06
 Reference value :  7.02945e-06
 Reference value :  7.03162e-06
 Reference value :  7.03421e-06
 Reference value :  7.03806e-06
 Reference value :  7.04158e-06
 Reference value :  7.04681e-06
 Reference value :  7.05225e-06
 Reference value :  7.05788e-06
 Reference value :  7.06275e-06
 Reference value :  7.06776e-06
 Reference value :  7.07361e-06
 Reference value :  7.08533e-06
 Reference value :  7.10039e-06
 Reference value :  7.11287e-06
 Reference value :  7.12792e-06
 Reference value :  7.14885e-06
 Reference value :  7.18473e-06
 Reference value :  7.23201e-06
 Reference value :  7.25010e-06
 Reference value :  7.25011e-06
 Reference value :  7.25013e-06
 Reference value :  7.25017e-06
 Reference value :  7.25020e-06
 Reference value :  7.25020e-06
 Reference value :  7.25020e-06
 Reference value :  7.25021e-06
 Reference value :  7.25021e-06
 Reference value :  7.25022e-06
 Reference value :  7.25025e-06
 Reference value :  7.25029e-06
 Reference value :  7.25039e-06
 Reference value :  7.25058e-06
 Reference value :  7.25092e-06
 Reference value :  7.25145e-06
 Reference value :  7.25209e-06
 Reference value :  7.25275e-06
 Reference value :  7.25348e-06
 Reference value :  7.25450e-06
 Reference value :  7.25519e-06
 Reference value :  7.25600e-06
 Reference value :  7.25691e-06
 Reference value :  7.25785e-06
 Reference value :  7.25906e-06
 Reference value :  7.26111e-06
 Reference value :  7.26321e-06
 Reference value :  7.26643e-06
 Reference value :  7.27059e-06
 Reference value :  7.27892e-06
 Reference value :  7.29557e-06
 Reference value :  7.32395e-06
 Reference value :  7.38069e-06
 Reference value :  7.49417e-06
 Reference value :  7.50000e-06
 Reference value :  7.50001e-06
 Reference value :  7.50003e-06
 Reference value :  7.50007e-06
 Reference value :  7.50010e-06
 Reference value :  7.50010e-06
 Reference value :  7.50011e-06
 Reference value :  7.50013e-06
 Reference value :  7.50016e-06
 Reference value :  7.50023e-06
 Reference value :  7.50037e-06
 Reference value :  7.50055e-06
 Reference value :  7.50091e-06
 Reference value :  7.50141e-06
 Reference value :  7.50195e-06
 Reference value :  7.50249e-06
 Reference value :  7.50318e-06
 Reference value :  7.50383e-06
 Reference value :  7.50460e-06
 Reference value :  7.50542e-06
 Reference value :  7.50633e-06
 Reference value :  7.50755e-06
 Reference value :  7.50877e-06
 Reference value :  7.51011e-06
 Reference value :  7.51161e-06
 Reference value :  7.51299e-06
 Reference value :  7.51431e-06
 Reference value :  7.51577e-06
 Reference value :  7.51725e-06
 Reference value :  7.51896e-06
 Reference value :  7.52237e-06
 Reference value :  7.52758e-06
 Reference value :  7.53799e-06
 Reference value :  7.55882e-06
 Reference value :  7.60048e-06
 Reference value :  7.68380e-06
 Reference value :  7.75010e-06
 Reference value :  7.75011e-06
 Reference value :  7.75013e-06
 Reference value :  7.75017e-06
 Reference value :  7.75020e-06
 Reference value :  7.75020e-06
 Reference value :  7.75020e-06
 Reference value :  7.75021e-06
 Reference value :  7.75021e-06
 Reference value :  7.75022e-06
 Reference value :  7.75025e-06
 Reference value :  7.75029e-06
 Reference value :  7.75039e-06
 Reference value :  7.75058e-06
 Reference value :  7.75092e-06
 Reference value :  7.75145e-06
 Reference value :  7.75209e-06
 Reference value :  7.75275e-06
 Reference value :  7.75348e-06
 Reference value :  7.75450e-06
 Reference value :  7.75522e-06
 Reference value :  7.75606e-06
 Reference value :  7.75680e-06
 Reference value :  7.75762e-06
 Reference value :  7.75862e-06
 Reference value :  7.75974e-06
 Reference value :  7.76088e-06
 Reference value :  7.76256e-06
 Reference value :  7.76439e-06
 Reference value :  7.76692e-06
 Reference value :  7.77011e-06
 Reference value :  7.77473e-06
 Reference value :  7.78397e-06
 Reference value :  7.79959e-06
 Reference value :  7.83081e-06
 Reference value :  7.89327e-06
 Reference value :  8.00000e-06
 Reference value :  8.00001e-06
 Reference value :  8.00003e-06
 Reference value :  8.00007e-06
 Reference value :  8.00010e-06
 Reference value :  8.00010e-06
 Reference value :  8.00011e-06
 Reference value :  8.00013e-06
 Reference value :  8.00016e-06
 Reference value :  8.00023e-06
 Reference value :  8.00037e-06
 Reference value :  8.00055e-06
 Reference value :  8.00090e-06
 Reference value :  8.00141e-06
 Reference value :  8.00195e-06
 Reference value :  8.00253e-06
 Reference value :  8.00325e-06
 Reference value :  8.00390e-06
 Reference value :  8.00467e-06
 Reference value :  8.00549e-06
 Reference value :  8.00635e-06
 Reference value :  8.00723e-06
 Reference value :  8.00802e-06
 Reference value :  8.00889e-06
 Reference value :  8.00984e-06
 Reference value :  8.01099e-06
 Reference value :  8.01277e-06
 Reference value :  8.01452e-06
 Reference value :  8.01614e-06
 Reference value :  8.01780e-06
 Reference value :  8.01952e-06
 Reference value :  8.02130e-06
 Reference value :  8.02343e-06
 Reference value :  8.02578e-06
 Reference value :  8.02899e-06
 Reference value :  8.03245e-06
 Reference value :  8.03633e-06
 Reference value :  8.03952e-06
 Reference value :  8.04284e-06
 Reference value :  8.04663e-06
 Reference value :  8.05075e-06
 Reference value :  8.05654e-06
 Reference value :  8.06814e-06
 Reference value :  8.08416e-06
 Reference value :  8.11440e-06
 Reference value :  8.15686e-06
 Reference value :  8.22076e-06
 Reference value :  8.25010e-06
 Reference value :  8.25011e-06
 Reference value :  8.25013e-06
 Reference value :  8.25017e-06
 Reference value :  8.25020e-06
 Reference value :  8.25020e-06
 Reference value :  8.25020e-06
 Reference value :  8.25021e-06
 Reference value :  8.25021e-06
 Reference value :  8.25022e-06
 Reference value :  8.25025e-06
 Reference value :  8.25030e-06
 Reference value :  8.25039e-06
 Reference value :  8.25059e-06
 Reference value :  8.25098e-06
 Reference value :  8.25148e-06
 Reference value :  8.25216e-06
 Reference value :  8.25279e-06
 Reference value :  8.25355e-06
 Reference value :  8.25459e-06
 Reference value :  8.25557e-06
 Reference value :  8.25696e-06
 Reference value :  8.25857e-06
 Reference value :  8.26006e-06
 Reference value :  8.26257e-06
 Reference value :  8.26525e-06
 Reference value :  8.26965e-06
 Reference value :  8.27638e-06
 Reference value :  8.28985e-06
 Reference value :  8.31677e-06
 Reference value :  8.36907e-06
 Reference value :  8.47366e-06
 Reference value :  8.50000e-06
 Reference value :  8.50000e-06
 Reference value :  8.50000e-06
 Reference value :  8.50000e-06
 Reference value :  8.50000e-06
 Reference value :  8.50000e-06
 Reference value :  8.50000e-06
 Reference value :  8.50000e-06
 Reference value :  8.50001e-06
 Reference value :  8.50001e-06
 Reference value :  8.50002e-06
 Reference value :  8.50004e-06
 Reference value :  8.50008e-06
 Reference value :  8.50010e-06
 Reference value :  8.50010e-06
 Reference value :  8.50011e-06
 Reference value :  8.50012e-06
 Reference value :  8.50014e-06
 Reference value :  8.50018e-06
 Reference value :  8.50026e-06
 Reference value :  8.50043e-06
 Reference value :  8.50077e-06
 Reference value :  8.50128e-06
 Reference value :  8.50204e-06
 Reference value :  8.50282e-06
 Reference value :  8.50353e-06
 Reference value :  8.50429e-06
 Reference value :  8.50506e-06
 Reference value :  8.50587e-06
 Reference value :  8.50695e-06
 Reference value :  8.50809e-06
 Reference value :  8.51036e-06
 Reference value :  8.51181e-06
 Reference value :  8.51329e-06
 Reference value :  8.51498e-06
 Reference value :  8.51685e-06
 Reference value :  8.51968e-06
 Reference value :  8.52318e-06
 Reference value :  8.52792e-06
 Reference value :  8.53348e-06
 Reference value :  8.53737e-06
 Reference value :  8.54071e-06
 Reference value :  8.54350e-06
 Reference value :  8.54653e-06
 Reference value :  8.54883e-06
 Reference value :  8.55107e-06
 Reference value :  8.55321e-06
 Reference value :  8.55553e-06
 Reference value :  8.55841e-06
 Reference value :  8.56188e-06
 Reference value :  8.56617e-06
 Reference value :  8.57090e-06
 Reference value :  8.57735e-06
 Reference value :  8.58545e-06
 Reference value :  8.59713e-06
 Reference value :  8.61102e-06
 Reference value :  8.62882e-06
 Reference value :  8.65056e-06
 Reference value :  8.67457e-06
 Reference value :  8.71032e-06
 Reference value :  8.75010e-06
 Reference value :  8.75011e-06
 Reference value :  8.75013e-06
 Reference value :  8.75017e-06
 Reference value :  8.75020e-06
 Reference value :  8.75020e-06
 Reference value :  8.75020e-06
 Reference value :  8.75021e-06
 Reference value :  8.75021e-06
 Reference value :  8.75022e-06
 Reference value :  8.75025e-06
 Reference value :  8.75030e-06
 Reference value :  8.75039e-06
 Reference value :  8.75059e-06
 Reference value :  8.75097e-06
 Reference value :  8.75148e-06
 Reference value :  8.75215e-06
 Reference value :  8.75280e-06
 Reference value :  8.75353e-06
 Reference value :  8.75446e-06
 Reference value :  8.75521e-06
 Reference value :  8.75607e-06
 Reference value :  8.75688e-06
 Reference value :  8.75776e-06
 Reference value :  8.75914e-06
 Reference value :  8.76057e-06
 Reference value :  8.76297e-06
 Reference value :  8.76575e-06
 Reference value :  8.77020e-06
 Reference value :  8.77766e-06
 Reference value :  8.79257e-06
 Reference value :  8.81965e-06
 Reference value :  8.87381e-06
 Reference value :  8.96756e-06
 Reference value :  9.00000e-06
 Reference value :  9.00001e-06
 Reference value :  9.00003e-06
 Reference value :  9.00007e-06
 Reference value :  9.00010e-06
 Reference value :  9.00010e-06
 Reference value :  9.00011e-06
 Reference value :  9.00013e-06
 Reference value :  9.00016e-06
 Reference value :  9.00023e-06
 Reference value :  9.00037e-06
 Reference value :  9.00055e-06
 Reference value :  9.00093e-06
 Reference value :  9.00144e-06
 Reference value :  9.00198e-06
 Reference value :  9.00257e-06
 Reference value :  9.00330e-06
 Reference value :  9.00398e-06
 Reference value :  9.00491e-06
 Reference value :  9.00574e-06
 Reference value :  9.00672e-06
 Reference value :  9.00803e-06
 Reference value :  9.00939e-06
 Reference value :  9.01136e-06
 Reference value :  9.01385e-06
 Reference value :  9.01571e-06
 Reference value :  9.01776e-06
 Reference value :  9.02016e-06
 Reference value :  9.02259e-06
 Reference value :  9.02528e-06
 Reference value :  9.03024e-06
 Reference value :  9.03669e-06
 Reference value :  9.04629e-06
 Reference value :  9.06547e-06
 Reference value :  9.09301e-06
 Reference value :  9.14808e-06
 Reference value :  9.24814e-06
 Reference value :  9.25010e-06
 Reference value :  9.25011e-06
 Reference value :  9.25013e-06
 Reference value :  9.25017e-06
 Reference value :  9.25020e-06
 Reference value :  9.25020e-06
 Reference value :  9.25020e-06
 Reference value :  9.25021e-06
 Reference value :  9.25021e-06
 Reference value :  9.25022e-06
 Reference value :  9.25025e-06
 Reference value :  9.25030e-06
 Reference value :  9.25039e-06
 Reference value :  9.25059e-06
 Reference value :  9.25097e-06
 Reference value :  9.25149e-06
 Reference value :  9.25216e-06
 Reference value :  9.25280e-06
 Reference value :  9.25356e-06
 Reference value :  9.25461e-06
 Reference value :  9.25534e-06
 Reference value :  9.25618e-06
 Reference value :  9.25694e-06
 Reference value :  9.25777e-06
 Reference value :  9.25886e-06
 Reference value :  9.26006e-06
 Reference value :  9.26246e-06
 Reference value :  9.26496e-06
 Reference value :  9.26923e-06
 Reference value :  9.27492e-06
 Reference value :  9.28630e-06
 Reference value :  9.30906e-06
 Reference value :  9.35457e-06
 Reference value :  9.44560e-06
 Reference value :  9.50000e-06
 Reference value :  9.50001e-06
 Reference value :  9.50003e-06
 Reference value :  9.50007e-06
 Reference value :  9.50010e-06
 Reference value :  9.50010e-06
 Reference value :  9.50011e-06
 Reference value :  9.50013e-06
 Reference value :  9.50016e-06
 Reference value :  9.50023e-06
 Reference value :  9.50037e-06
 Reference value :  9.50055e-06
 Reference value :  9.50093e-06
 Reference value :  9.50144e-06
 Reference value :  9.50198e-06
 Reference value :  9.50256e-06
 Reference value :  9.50321e-06
 Reference value :  9.50388e-06
 Reference value :  9.50467e-06
 Reference value :  9.50549e-06
 Reference value :  9.50635e-06
 Reference value :  9.50731e-06
 Reference value :  9.50811e-06
 Reference value :  9.50905e-06
 Reference value :  9.50999e-06
 Reference value :  9.51120e-06
 Reference value :  9.51295e-06
 Reference value :  9.51555e-06
 Reference value :  9.51800e-06
 Reference value :  9.52018e-06
 Reference value :  9.52198e-06
 Reference value :  9.52372e-06
 Reference value :  9.52550e-06
 Reference value :  9.52721e-06
 Reference value :  9.52932e-06
 Reference value :  9.53147e-06
 Reference value :  9.53414e-06
 Reference value :  9.53797e-06
 Reference value :  9.54334e-06
 Reference value :  9.55188e-06
 Reference value :  9.56528e-06
 Reference value :  9.58697e-06
 Reference value :  9.62109e-06
 Reference value :  9.67725e-06
 Reference value :  9.74926e-06
 Reference value :  9.75010e-06
 Reference value :  9.75011e-06
 Reference value :  9.75013e-06
 Reference value :  9.75017e-06
 Reference value :  9.75020e-06
 Reference value :  9.75020e-06
 Reference value :  9.75020e-06
 Reference value :  9.75021e-06
 Reference value :  9.75021e-06
 Reference value :  9.75022e-06
 Reference value :  9.75025e-06
 Reference value :  9.75030e-06
 Reference value :  9.75039e-06
 Reference value :  9.75059e-06
 Reference value :  9.75093e-06
 Reference value :  9.75147e-06
 Reference value :  9.75211e-06
 Reference value :  9.75277e-06
 Reference value :  9.75350e-06
 Reference value :  9.75453e-06
 Reference value :  9.75529e-06
 Reference value :  9.75614e-06
 Reference value :  9.75704e-06
 Reference value :  9.75797e-06
 Reference value :  9.75925e-06
 Reference value :  9.76114e-06
 Reference value :  9.76330e-06
 Reference value :  9.76659e-06
 Reference value :  9.77084e-06
 Reference value :  9.77934e-06
 Reference value :  9.79633e-06
 Reference value :  9.82508e-06
 Reference value :  9.88257e-06
 Reference value :  9.99048e-06
 Reference value :  1.00000e-05
 Reference value :  1.00000e-05
 Reference value :  1.00000e-05
 Reference value :  1.00001e-05
 Reference value :  1.00001e-05
 Reference value :  1.00001e-05
 Reference value :  1.00001e-05
 Reference value :  1.00001e-05
 Reference value :  1.00002e-05
 Reference value :  1.00002e-05
 Reference value :  1.00004e-05
 Reference value :  1.00005e-05
 Reference value :  1.00009e-05
 Reference value :  1.00014e-05
 Reference value :  1.00020e-05
 Reference value :  1.00025e-05
 Reference value :  1.00032e-05
 Reference value :  1.00039e-05
 Reference value :  1.00046e-05
 Reference value :  1.00055e-05
 Reference value :  1.00064e-05
 Reference value :  1.00076e-05
 Reference value :  1.00088e-05
 Reference value :  1.00101e-05
 Reference value :  1.00115e-05
 Reference value :  1.00130e-05
 Reference value :  1.00146e-05
 Reference value :  1.00163e-05
 Reference value :  1.00180e-05
 Reference value :  1.00199e-05
 Reference value :  1.00237e-05
 Reference value :  1.00312e-05
 Reference value :  1.00443e-05
 Reference value :  1.00705e-05
 Reference value :  1.01229e-05
 Reference value :  1.02278e-05
 Reference value :  1.02501e-05
 Reference value :  1.02501e-05
 Reference value :  1.02501e-05
 Reference value :  1.02502e-05
 Reference value :  1.02502e-05
 Reference value :  1.02502e-05
 Reference value :  1.02502e-05
 Reference value :  1.02502e-05
 Reference value :  1.02502e-05
 Reference value :  1.02502e-05
 Reference value :  1.02502e-05
 Reference value :  1.02503e-05
 Reference value :  1.02504e-05
 Reference value :  1.02506e-05
 Reference value :  1.02509e-05
 Reference value :  1.02515e-05
 Reference value :  1.02521e-05
 Reference value :  1.02528e-05
 Reference value :  1.02535e-05
 Reference value :  1.02545e-05
 Reference value :  1.02552e-05
 Reference value :  1.02561e-05
 Reference value :  1.02568e-05
 Reference value :  1.02577e-05
 Reference value :  1.02587e-05
 Reference value :  1.02598e-05
 Reference value :  1.02620e-05
 Reference value :  1.02644e-05
 Reference value :  1.02684e-05
 Reference value :  1.02734e-05
 Reference value :  1.02833e-05
 Reference value :  1.03032e-05
 Reference value :  1.03417e-05
 Reference value :  1.04188e-05
 Reference value :  1.05000e-05
 Reference value :  1.05000e-05
 Reference value :  1.05000e-05
 Reference value :  1.05001e-05
 Reference value :  1.05001e-05
 Reference value :  1.05001e-05
 Reference value :  1.05001e-05
 Reference value :  1.05001e-05
 Reference value :  1.05002e-05
 Reference value :  1.05002e-05
 Reference value :  1.05004e-05
 Reference value :  1.05005e-05
 Reference value :  1.05009e-05
 Reference value :  1.05014e-05
 Reference value :  1.05020e-05
 Reference value :  1.05025e-05
 Reference value :  1.05032e-05
 Reference value :  1.05039e-05
 Reference value :  1.05046e-05
 Reference value :  1.05055e-05
 Reference value :  1.05064e-05
 Reference value :  1.05073e-05
 Reference value :  1.05081e-05
 Reference value :  1.05090e-05
 Reference value :  1.05100e-05
 Reference value :  1.05112e-05
 Reference value :  1.05129e-05
 Reference value :  1.05156e-05
 Reference value :  1.05181e-05
 Reference value :  1.05202e-05
 Reference value :  1.05220e-05
 Reference value :  1.05237e-05
 Reference value :  1.05256e-05
 Reference value :  1.05273e-05
 Reference value :  1.05295e-05
 Reference value :  1.05316e-05
 Reference value :  1.05343e-05
 Reference value :  1.05381e-05
 Reference value :  1.05434e-05
 Reference value :  1.05520e-05
 Reference value :  1.05655e-05
 Reference value :  1.05874e-05
 Reference value :  1.06139e-05
 Reference value :  1.06402e-05
 Reference value :  1.06600e-05
 Reference value :  1.06746e-05
 Reference value :  1.06885e-05
 Reference value :  1.06961e-05
 Reference value :  1.07061e-05
 Reference value :  1.07226e-05
 Reference value :  1.07394e-05
 Reference value :  1.07501e-05
 Reference value :  1.07501e-05
 Reference value :  1.07501e-05
 Reference value :  1.07502e-05
 Reference value :  1.07502e-05
 Reference value :  1.07502e-05
 Reference value :  1.07502e-05
 Reference value :  1.07502e-05
 Reference value :  1.07502e-05
 Reference value :  1.07502e-05
 Reference value :  1.07502e-05
 Reference value :  1.07503e-05
 Reference value :  1.07504e-05
 Reference value :  1.07506e-05
 Reference value :  1.07509e-05
 Reference value :  1.07515e-05
 Reference value :  1.07521e-05
 Reference value :  1.07528e-05
 Reference value :  1.07535e-05
 Reference value :  1.07545e-05
 Reference value :  1.07552e-05
 Reference value :  1.07560e-05
 Reference value :  1.07570e-05
 Reference value :  1.07579e-05
 Reference value :  1.07591e-05
 Reference value :  1.07612e-05
 Reference value :  1.07633e-05
 Reference value :  1.07665e-05
 Reference value :  1.07707e-05
 Reference value :  1.07790e-05
 Reference value :  1.07957e-05
 Reference value :  1.08241e-05
 Reference value :  1.08809e-05
 Reference value :  1.09751e-05
 Reference value :  1.10000e-05
 Reference value :  1.10000e-05
 Reference value :  1.10000e-05
 Reference value :  1.10001e-05
 Reference value :  1.10001e-05
 Reference value :  1.10001e-05
 Reference value :  1.10001e-05
 Reference value :  1.10001e-05
 Reference value :  1.10002e-05
 Reference value :  1.10002e-05
 Reference value :  1.10004e-05
 Reference value :  1.10005e-05
 Reference value :  1.10009e-05
 Reference value :  1.10014e-05
 Reference value :  1.10020e-05
 Reference value :  1.10025e-05
 Reference value :  1.10032e-05
 Reference value :  1.10038e-05
 Reference value :  1.10046e-05
 Reference value :  1.10054e-05
 Reference value :  1.10063e-05
 Reference value :  1.10076e-05
 Reference value :  1.10088e-05
 Reference value :  1.10101e-05
 Reference value :  1.10116e-05
 Reference value :  1.10131e-05
 Reference value :  1.10145e-05
 Reference value :  1.10161e-05
 Reference value :  1.10177e-05
 Reference value :  1.10195e-05
 Reference value :  1.10230e-05
 Reference value :  1.10301e-05
 Reference value :  1.10426e-05
 Reference value :  1.10677e-05
 Reference value :  1.11178e-05
 Reference value :  1.12179e-05
 Reference value :  1.12501e-05
 Reference value :  1.12501e-05
 Reference value :  1.12501e-05
 Reference value :  1.12502e-05
 Reference value :  1.12502e-05
 Reference value :  1.12502e-05
 Reference value :  1.12502e-05
 Reference value :  1.12502e-05
 Reference value :  1.12502e-05
 Reference value :  1.12502e-05
 Reference value :  1.12502e-05
 Reference value :  1.12503e-05
 Reference value :  1.12504e-05
 Reference value :  1.12506e-05
 Reference value :  1.12509e-05
 Reference value :  1.12515e-05
 Reference value :  1.12521e-05
 Reference value :  1.12527e-05
 Reference value :  1.12535e-05
 Reference value :  1.12545e-05
 Reference value :  1.12552e-05
 Reference value :  1.12561e-05
 Reference value :  1.12568e-05
 Reference value :  1.12577e-05
 Reference value :  1.12587e-05
 Reference value :  1.12598e-05
 Reference value :  1.12609e-05
 Reference value :  1.12626e-05
 Reference value :  1.12645e-05
 Reference value :  1.12670e-05
 Reference value :  1.12702e-05
 Reference value :  1.12749e-05
 Reference value :  1.12841e-05
 Reference value :  1.13003e-05
 Reference value :  1.13326e-05
 Reference value :  1.13973e-05
 Reference value :  1.15000e-05
 Reference value :  1.15000e-05
 Reference value :  1.15000e-05
 Reference value :  1.15001e-05
 Reference value :  1.15001e-05
 Reference value :  1.15001e-05
 Reference value :  1.15001e-05
 Reference value :  1.15001e-05
 Reference value :  1.15002e-05
 Reference value :  1.15002e-05
 Reference value :  1.15004e-05
 Reference value :  1.15005e-05
 Reference value :  1.15009e-05
 Reference value :  1.15014e-05
 Reference value :  1.15020e-05
 Reference value :  1.15025e-05
 Reference value :  1.15032e-05
 Reference value :  1.15039e-05
 Reference value :  1.15046e-05
 Reference value :  1.15054e-05
 Reference value :  1.15063e-05
 Reference value :  1.15071e-05
 Reference value :  1.15080e-05
 Reference value :  1.15089e-05
 Reference value :  1.15098e-05
 Reference value :  1.15111e-05
 Reference value :  1.15126e-05
 Reference value :  1.15147e-05
 Reference value :  1.15163e-05
 Reference value :  1.15180e-05
 Reference value :  1.15198e-05
 Reference value :  1.15212e-05
 Reference value :  1.15226e-05
 Reference value :  1.15243e-05
 Reference value :  1.15259e-05
 Reference value :  1.15274e-05
 Reference value :  1.15293e-05
 Reference value :  1.15314e-05
 Reference value :  1.15329e-05
 Reference value :  1.15344e-05
 Reference value :  1.15361e-05
 Reference value :  1.15379e-05
 Reference value :  1.15399e-05
 Reference value :  1.15439e-05
 Reference value :  1.15492e-05
 Reference value :  1.15577e-05
 Reference value :  1.15720e-05
 Reference value :  1.16008e-05
 Reference value :  1.16506e-05
 Reference value :  1.17093e-05
 Reference value :  1.17501e-05
 Reference value :  1.17501e-05
 Reference value :  1.17501e-05
 Reference value :  1.17502e-05
 Reference value :  1.17502e-05
 Reference value :  1.17502e-05
 Reference value :  1.17502e-05
 Reference value :  1.17502e-05
 Reference value :  1.17502e-05
 Reference value :  1.17502e-05
 Reference value :  1.17502e-05
 Reference value :  1.17503e-05
 Reference value :  1.17504e-05
 Reference value :  1.17506e-05
 Reference value :  1.17509e-05
 Reference value :  1.17515e-05
 Reference value :  1.17521e-05
 Reference value :  1.17527e-05
 Reference value :  1.17535e-05
 Reference value :  1.17545e-05
 Reference value :  1.17552e-05
 Reference value :  1.17561e-05
 Reference value :  1.17570e-05
 Reference value :  1.17579e-05
 Reference value :  1.17592e-05
 Reference value :  1.17610e-05
 Reference value :  1.17632e-05
 Reference value :  1.17663e-05
 Reference value :  1.17706e-05
 Reference value :  1.17792e-05
 Reference value :  1.17957e-05
 Reference value :  1.18242e-05
 Reference value :  1.18814e-05
 Reference value :  1.19956e-05
 Reference value :  1.20000e-05
 Reference value :  1.20000e-05
 Reference value :  1.20000e-05
 Reference value :  1.20001e-05
 Reference value :  1.20001e-05
 Reference value :  1.20001e-05
 Reference value :  1.20001e-05
 Reference value :  1.20001e-05
 Reference value :  1.20002e-05
 Reference value :  1.20002e-05
 Reference value :  1.20004e-05
 Reference value :  1.20005e-05
 Reference value :  1.20009e-05
 Reference value :  1.20014e-05
 Reference value :  1.20020e-05
 Reference value :  1.20025e-05
 Reference value :  1.20032e-05
 Reference value :  1.20039e-05
 Reference value :  1.20046e-05
 Reference value :  1.20055e-05
 Reference value :  1.20063e-05
 Reference value :  1.20075e-05
 Reference value :  1.20087e-05
 Reference value :  1.20100e-05
 Reference value :  1.20115e-05
 Reference value :  1.20129e-05
 Reference value :  1.20143e-05
 Reference value :  1.20158e-05
 Reference value :  1.20173e-05
 Reference value :  1.20191e-05
 Reference value :  1.20225e-05
 Reference value :  1.20286e-05
 Reference value :  1.20408e-05
 Reference value :  1.20652e-05
 Reference value :  1.21140e-05
 Reference value :  1.22115e-05
 Reference value :  1.22501e-05
 Reference value :  1.22501e-05
 Reference value :  1.22501e-05
 Reference value :  1.22502e-05
 Reference value :  1.22502e-05
 Reference value :  1.22502e-05
 Reference value :  1.22502e-05
 Reference value :  1.22502e-05
 Reference value :  1.22502e-05
 Reference value :  1.22502e-05
 Reference value :  1.22502e-05
 Reference value :  1.22503e-05
 Reference value :  1.22504e-05
 Reference value :  1.22506e-05
 Reference value :  1.22509e-05
 Reference value :  1.22515e-05
 Reference value :  1.22521e-05
 Reference value :  1.22527e-05
 Reference value :  1.22535e-05
 Reference value :  1.22545e-05
 Reference value :  1.22552e-05
 Reference value :  1.22561e-05
 Reference value :  1.22568e-05
 Reference value :  1.22577e-05
 Reference value :  1.22587e-05
 Reference value :  1.22598e-05
 Reference value :  1.22620e-05
 Reference value :  1.22644e-05
 Reference value :  1.22684e-05
 Reference value :  1.22733e-05
 Reference value :  1.22832e-05
 Reference value :  1.23030e-05
 Reference value :  1.23411e-05
 Reference value :  1.24173e-05
 Reference value :  1.25000e-05
 Reference value :  1.25000e-05
 Reference value :  1.25000e-05
 Reference value :  1.25001e-05
 Reference value :  1.25001e-05
 Reference value :  1.25001e-05
 Reference value :  1.25001e-05
 Reference value :  1.25001e-05
 Reference value :  1.25002e-05
 Reference value :  1.25002e-05
 Reference value :  1.25004e-05
 Reference value :  1.25005e-05
 Reference value :  1.25009e-05
 Reference value :  1.25014e-05
 Reference value :  1.25020e-05
 Reference value :  1.25025e-05
 Reference value :  1.25032e-05
 Reference value :  1.25039e-05
 Reference value :  1.25046e-05
 Reference value :  1.25055e-05
 Reference value :  1.25064e-05
 Reference value :  1.25073e-05
 Reference value :  1.25081e-05
 Reference value :  1.25090e-05
 Reference value :  1.25100e-05
 Reference value :  1.25112e-05
 Reference value :  1.25129e-05
 Reference value :  1.25153e-05
 Reference value :  1.25179e-05
 Reference value :  1.25200e-05
 Reference value :  1.25217e-05
 Reference value :  1.25234e-05
 Reference value :  1.25252e-05
 Reference value :  1.25269e-05
 Reference value :  1.25288e-05
 Reference value :  1.25308e-05
 Reference value :  1.25336e-05
 Reference value :  1.25373e-05
 Reference value :  1.25433e-05
 Reference value :  1.25537e-05
 Reference value :  1.25703e-05
 Reference value :  1.25903e-05
 Reference value :  1.26139e-05
 Reference value :  1.26384e-05
 Reference value :  1.26644e-05
 Reference value :  1.26997e-05
 Reference value :  1.27350e-05
 Reference value :  1.27501e-05
 Reference value :  1.27501e-05
 Reference value :  1.27501e-05
 Reference value :  1.27502e-05
 Reference value :  1.27502e-05
 Reference value :  1.27502e-05
 Reference value :  1.27502e-05
 Reference value :  1.27502e-05
 Reference value :  1.27502e-05
 Reference value :  1.27502e-05
 Reference value :  1.27502e-05
 Reference value :  1.27503e-05
 Reference value :  1.27504e-05
 Reference value :  1.27506e-05
 Reference value :  1.27509e-05
 Reference value :  1.27515e-05
 Reference value :  1.27521e-05
 Reference value :  1.27528e-05
 Reference value :  1.27535e-05
 Reference value :  1.27545e-05
 Reference value :  1.27553e-05
 Reference value :  1.27561e-05
 Reference value :  1.27570e-05
 Reference value :  1.27579e-05
 Reference value :  1.27592e-05
 Reference value :  1.27610e-05
 Reference value :  1.27632e-05
 Reference value :  1.27664e-05
 Reference value :  1.27707e-05
 Reference value :  1.27793e-05
 Reference value :  1.27960e-05
 Reference value :  1.28249e-05
 Reference value :  1.28828e-05
 Reference value :  1.29982e-05
 Reference value :  1.30000e-05
 Reference value :  1.30000e-05
 Reference value :  1.30000e-05
 Reference value :  1.30001e-05
 Reference value :  1.30001e-05
 Reference value :  1.30001e-05
 Reference value :  1.30001e-05
 Reference value :  1.30001e-05
 Reference value :  1.30002e-05
 Reference value :  1.30002e-05
 Reference value :  1.30004e-05
 Reference value :  1.30005e-05
 Reference value :  1.30009e-05
 Reference value :  1.30014e-05
 Reference value :  1.30020e-05
 Reference value :  1.30025e-05
 Reference value :  1.30032e-05
 Reference value :  1.30039e-05
 Reference value :  1.30046e-05
 Reference value :  1.30055e-05
 Reference value :  1.30063e-05
 Reference value :  1.30075e-05
 Reference value :  1.30087e-05
 Reference value :  1.30099e-05
 Reference value :  1.30113e-05
 Reference value :  1.30128e-05
 Reference value :  1.30143e-05
 Reference value :  1.30158e-05
 Reference value :  1.30174e-05
 Reference value :  1.30191e-05
 Reference value :  1.30223e-05
 Reference value :  1.30272e-05
 Reference value :  1.30368e-05
 Reference value :  1.30553e-05
 Reference value :  1.30918e-05
 Reference value :  1.31646e-05
 Reference value :  1.32501e-05
 Reference value :  1.32501e-05
 Reference value :  1.32501e-05
 Reference value :  1.32502e-05
 Reference value :  1.32502e-05
 Reference value :  1.32502e-05
 Reference value :  1.32502e-05
 Reference value :  1.32502e-05
 Reference value :  1.32502e-05
 Reference value :  1.32502e-05
 Reference value :  1.32502e-05
 Reference value :  1.32503e-05
 Reference value :  1.32504e-05
 Reference value :  1.32506e-05
 Reference value :  1.32509e-05
 Reference value :  1.32515e-05
 Reference value :  1.32521e-05
 Reference value :  1.32527e-05
 Reference value :  1.32535e-05
 Reference value :  1.32545e-05
 Reference value :  1.32552e-05
 Reference value :  1.32561e-05
 Reference value :  1.32568e-05
 Reference value :  1.32576e-05
 Reference value :  1.32586e-05
 Reference value :  1.32598e-05
 Reference value :  1.32620e-05
 Reference value :  1.32643e-05
 Reference value :  1.32683e-05
 Reference value :  1.32732e-05
 Reference value :  1.32830e-05
 Reference value :  1.33026e-05
 Reference value :  1.33402e-05
 Reference value :  1.34153e-05
 Reference value :  1.35000e-05
 Reference value :  1.35000e-05
 Reference value :  1.35000e-05
 Reference value :  1.35001e-05
 Reference value :  1.35001e-05
 Reference value :  1.35001e-05
 Reference value :  1.35001e-05
 Reference value :  1.35001e-05
 Reference value :  1.35002e-05
 Reference value :  1.35002e-05
 Reference value :  1.35004e-05
 Reference value :  1.35005e-05
 Reference value :  1.35009e-05
 Reference value :  1.35014e-05
 Reference value :  1.35020e-05
 Reference value :  1.35025e-05
 Reference value :  1.35032e-05
 Reference value :  1.35039e-05
 Reference value :  1.35047e-05
 Reference value :  1.35055e-05
 Reference value :  1.35064e-05
 Reference value :  1.35073e-05
 Reference value :  1.35081e-05
 Reference value :  1.35090e-05
 Reference value :  1.35100e-05
 Reference value :  1.35111e-05
 Reference value :  1.35130e-05
 Reference value :  1.35155e-05
 Reference value :  1.35180e-05
 Reference value :  1.35202e-05
 Reference value :  1.35219e-05
 Reference value :  1.35235e-05
 Reference value :  1.35251e-05
 Reference value :  1.35268e-05
 Reference value :  1.35287e-05
 Reference value :  1.35307e-05
 Reference value :  1.35335e-05
 Reference value :  1.35372e-05
 Reference value :  1.35433e-05
 Reference value :  1.35518e-05
 Reference value :  1.35622e-05
 Reference value :  1.35725e-05
 Reference value :  1.35805e-05
 Reference value :  1.35879e-05
 Reference value :  1.35959e-05
 Reference value :  1.36076e-05
 Reference value :  1.36195e-05
 Reference value :  1.36299e-05
 Reference value :  1.36364e-05
 Reference value :  1.36429e-05
 Reference value :  1.36491e-05
 Reference value :  1.36560e-05
 Reference value :  1.36630e-05
 Reference value :  1.36762e-05
 Reference value :  1.36907e-05
 Reference value :  1.37170e-05
 Reference value :  1.37501e-05
 Reference value :  1.37501e-05
 Reference value :  1.37501e-05
 Reference value :  1.37502e-05
 Reference value :  1.37502e-05
 Reference value :  1.37502e-05
 Reference value :  1.37502e-05
 Reference value :  1.37502e-05
 Reference value :  1.37502e-05
 Reference value :  1.37502e-05
 Reference value :  1.37502e-05
 Reference value :  1.37503e-05
 Reference value :  1.37504e-05
 Reference value :  1.37506e-05
 Reference value :  1.37509e-05
 Reference value :  1.37515e-05
 Reference value :  1.37521e-05
 Reference value :  1.37527e-05
 Reference value :  1.37535e-05
 Reference value :  1.37545e-05
 Reference value :  1.37552e-05
 Reference value :  1.37561e-05
 Reference value :  1.37570e-05
 Reference value :  1.37579e-05
 Reference value :  1.37592e-05
 Reference value :  1.37610e-05
 Reference value :  1.37632e-05
 Reference value :  1.37663e-05
 Reference value :  1.37707e-05
 Reference value :  1.37793e-05
 Reference value :  1.37957e-05
 Reference value :  1.38242e-05
 Reference value :  1.38809e-05
 Reference value :  1.39944e-05
 Reference value :  1.40000e-05
 Reference value :  1.40000e-05
 Reference value :  1.40000e-05
 Reference value :  1.40001e-05
 Reference value :  1.40001e-05
 Reference value :  1.40001e-05
 Reference value :  1.40001e-05
 Reference value :  1.40001e-05
 Reference value :  1.40002e-05
 Reference value :  1.40002e-05
 Reference value :  1.40004e-05
 Reference value :  1.40005e-05
 Reference value :  1.40009e-05
 Reference value :  1.40014e-05
 Reference value :  1.40020e-05
 Reference value :  1.40025e-05
 Reference value :  1.40032e-05
 Reference value :  1.40039e-05
 Reference value :  1.40046e-05
 Reference value :  1.40055e-05
 Reference value :  1.40064e-05
 Reference value :  1.40076e-05
 Reference value :  1.40088e-05
 Reference value :  1.40100e-05
 Reference value :  1.40113e-05
 Reference value :  1.40127e-05
 Reference value :  1.40141e-05
 Reference value :  1.40155e-05
 Reference value :  1.40170e-05
 Reference value :  1.40187e-05
 Reference value :  1.40220e-05
 Reference value :  1.40270e-05
 Reference value :  1.40369e-05
 Reference value :  1.40568e-05
 Reference value :  1.40963e-05
 Reference value :  1.41755e-05
 Reference value :  1.42501e-05
 Reference value :  1.42501e-05
 Reference value :  1.42501e-05
 Reference value :  1.42502e-05
 Reference value :  1.42502e-05
 Reference value :  1.42502e-05
 Reference value :  1.42502e-05
 Reference value :  1.42502e-05
 Reference value :  1.42502e-05
 Reference value :  1.42502e-05
 Reference value :  1.42502e-05
 Reference value :  1.42503e-05
 Reference value :  1.42504e-05
 Reference value :  1.42506e-05
 Reference value :  1.42509e-05
 Reference value :  1.42515e-05
 Reference value :  1.42521e-05
 Reference value :  1.42527e-05
 Reference value :  1.42535e-05
 Reference value :  1.42545e-05
 Reference value :  1.42552e-05
 Reference value :  1.42561e-05
 Reference value :  1.42568e-05
 Reference value :  1.42577e-05
 Reference value :  1.42587e-05
 Reference value :  1.42598e-05
 Reference value :  1.42620e-05
 Reference value :  1.42644e-05
 Reference value :  1.42683e-05
 Reference value :  1.42733e-05
 Reference value :  1.42831e-05
 Reference value :  1.43029e-05
 Reference value :  1.43407e-05
 Reference value :  1.44165e-05
 Reference value :  1.45000e-05
 Reference value :  1.45000e-05
 Reference value :  1.45000e-05
 Reference value :  1.45001e-05
 Reference value :  1.45001e-05
 Reference value :  1.45001e-05
 Reference value :  1.45001e-05
 Reference value :  1.45001e-05
 Reference value :  1.45002e-05
 Reference value :  1.45002e-05
 Reference value :  1.45004e-05
 Reference value :  1.45005e-05
 Reference value :  1.45009e-05
 Reference value :  1.45014e-05
 Reference value :  1.45020e-05
 Reference value :  1.45025e-05
 Reference value :  1.45032e-05
 Reference value :  1.45039e-05
 Reference value :  1.45046e-05
 Reference value :  1.45055e-05
 Reference value :  1.45063e-05
 Reference value :  1.45072e-05
 Reference value :  1.45080e-05
 Reference value :  1.45089e-05
 Reference value :  1.45099e-05
 Reference value :  1.45110e-05
 Reference value :  1.45129e-05
 Reference value :  1.45153e-05
 Reference value :  1.45180e-05
 Reference value :  1.45203e-05
 Reference value :  1.45221e-05
 Reference value :  1.45238e-05
 Reference value :  1.45254e-05
 Reference value :  1.45272e-05
 Reference value :  1.45291e-05
 Reference value :  1.45312e-05
 Reference value :  1.45338e-05
 Reference value :  1.45376e-05
 Reference value :  1.45430e-05
 Reference value :  1.45499e-05
 Reference value :  1.45568e-05
 Reference value :  1.45625e-05
 Reference value :  1.45685e-05
 Reference value :  1.45745e-05
 Reference value :  1.45810e-05
 Reference value :  1.45905e-05
 Reference value :  1.46018e-05
 Reference value :  1.46131e-05
 Reference value :  1.46356e-05
 Reference value :  1.46739e-05
 Reference value :  1.47054e-05
 Reference value :  1.47270e-05
 Reference value :  1.47474e-05
 Reference value :  1.47501e-05
 Reference value :  1.47501e-05
 Reference value :  1.47501e-05
 Reference value :  1.47502e-05
 Reference value :  1.47502e-05
 Reference value :  1.47502e-05
 Reference value :  1.47502e-05
 Reference value :  1.47502e-05
 Reference value :  1.47502e-05
 Reference value :  1.47502e-05
 Reference value :  1.47502e-05
 Reference value :  1.47503e-05
 Reference value :  1.47504e-05
 Reference value :  1.47506e-05
 Reference value :  1.47509e-05
 Reference value :  1.47515e-05
 Reference value :  1.47521e-05
 Reference value :  1.47528e-05
 Reference value :  1.47535e-05
 Reference value :  1.47545e-05
 Reference value :  1.47553e-05
 Reference value :  1.47561e-05
 Reference value :  1.47570e-05
 Reference value :  1.47579e-05
 Reference value :  1.47592e-05
 Reference value :  1.47610e-05
 Reference value :  1.47632e-05
 Reference value :  1.47664e-05
 Reference value :  1.47707e-05
 Reference value :  1.47792e-05
 Reference value :  1.47960e-05
 Reference value :  1.48246e-05
 Reference value :  1.48819e-05
 Reference value :  1.49875e-05
 Reference value :  1.50000e-05
 Reference value :  1.50000e-05
 Reference value :  1.50000e-05
 Reference value :  1.50001e-05
 Reference value :  1.50001e-05
 Reference value :  1.50001e-05
 Reference value :  1.50001e-05
 Reference value :  1.50001e-05
 Reference value :  1.50002e-05
 Reference value :  1.50002e-05
 Reference value :  1.50004e-05
 Reference value :  1.50005e-05
 Reference value :  1.50009e-05
 Reference value :  1.50014e-05
 Reference value :  1.50020e-05
 Reference value :  1.50025e-05
 Reference value :  1.50032e-05
 Reference value :  1.50039e-05
 Reference value :  1.50046e-05
 Reference value :  1.50055e-05
 Reference value :  1.50063e-05
 Reference value :  1.50075e-05
 Reference value :  1.50087e-05
 Reference value :  1.50100e-05
 Reference value :  1.50115e-05
 Reference value :  1.50129e-05
 Reference value :  1.50143e-05
 Reference value :  1.50158e-05
 Reference value :  1.50174e-05
 Reference value :  1.50193e-05
 Reference value :  1.50226e-05
 Reference value :  1.50275e-05
 Reference value :  1.50372e-05
 Reference value :  1.50552e-05
 Reference value :  1.50895e-05
 Reference value :  1.51580e-05
 Reference value :  1.52501e-05
 Reference value :  1.52501e-05
 Reference value :  1.52501e-05
 Reference value :  1.52502e-05
 Reference value :  1.52502e-05
 Reference value :  1.52502e-05
 Reference value :  1.52502e-05
 Reference value :  1.52502e-05
 Reference value :  1.52502e-05
 Reference value :  1.52502e-05
 Reference value :  1.52502e-05
 Reference value :  1.52503e-05
 Reference value :  1.52504e-05
 Reference value :  1.52506e-05
 Reference value :  1.52509e-05
 Reference value :  1.52515e-05
 Reference value :  1.52521e-05
 Reference value :  1.52527e-05
 Reference value :  1.52535e-05
 Reference value :  1.52545e-05
 Reference value :  1.52552e-05
 Reference value :  1.52561e-05
 Reference value :  1.52568e-05
 Reference value :  1.52577e-05
 Reference value :  1.52587e-05
 Reference value :  1.52598e-05
 Reference value :  1.52620e-05
 Reference value :  1.52644e-05
 Reference value :  1.52683e-05
 Reference value :  1.52733e-05
 Reference value :  1.52831e-05
 Reference value :  1.53029e-05
 Reference value :  1.53409e-05
 Reference value :  1.54169e-05
 Reference value :  1.55000e-05
 Reference value :  1.55012e-05
 Reference value :  1.55035e-05
 Reference value :  1.55048e-05
 Reference value :  1.55060e-05
 Reference value :  1.55070e-05
 Reference value :  1.55081e-05
 Reference value :  1.55090e-05
 Reference value :  1.55100e-05
 Reference value :  1.55113e-05
 Reference value :  1.55127e-05
 Reference value :  1.55152e-05
 Reference value :  1.55182e-05
 Reference value :  1.55204e-05
 Reference value :  1.55228e-05
 Reference value :  1.55247e-05
 Reference value :  1.55267e-05
 Reference value :  1.55287e-05
 Reference value :  1.55308e-05
 Reference value :  1.55332e-05
 Reference value :  1.55360e-05
 Reference value :  1.55399e-05
 Reference value :  1.55439e-05
 Reference value :  1.55488e-05
 Reference value :  1.55556e-05
 Reference value :  1.55625e-05
 Reference value :  1.55679e-05
 Reference value :  1.55737e-05
 Reference value :  1.55812e-05
 Reference value :  1.55925e-05
 Reference value :  1.56073e-05
 Reference value :  1.56300e-05
 Reference value :  1.56653e-05
 Reference value :  1.57004e-05
 Reference value :  1.57352e-05
 Reference value :  1.57501e-05
 Reference value :  1.57501e-05
 Reference value :  1.57501e-05
 Reference value :  1.57502e-05
 Reference value :  1.57502e-05
 Reference value :  1.57502e-05
 Reference value :  1.57502e-05
 Reference value :  1.57502e-05
 Reference value :  1.57502e-05
 Reference value :  1.57502e-05
 Reference value :  1.57502e-05
 Reference value :  1.57503e-05
 Reference value :  1.57504e-05
 Reference value :  1.57506e-05
 Reference value :  1.57509e-05
 Reference value :  1.57515e-05
 Reference value :  1.57521e-05
[...]
 Reference value :  1.74263e-04
 Reference value :  1.74266e-04
 Reference value :  1.74271e-04
 Reference value :  1.74279e-04
 Reference value :  1.74296e-04
 Reference value :  1.74325e-04
 Reference value :  1.74381e-04
 Reference value :  1.74495e-04
 Reference value :  1.74500e-04
 Reference value :  1.74500e-04
 Reference value :  1.74500e-04
 Reference value :  1.74500e-04
 Reference value :  1.74500e-04
 Reference value :  1.74500e-04
 Reference value :  1.74500e-04
 Reference value :  1.74500e-04
 Reference value :  1.74500e-04
 Reference value :  1.74500e-04
 Reference value :  1.74500e-04
 Reference value :  1.74501e-04
 Reference value :  1.74501e-04
 Reference value :  1.74501e-04
 Reference value :  1.74502e-04
 Reference value :  1.74503e-04
 Reference value :  1.74503e-04
 Reference value :  1.74504e-04
 Reference value :  1.74505e-04
 Reference value :  1.74505e-04
 Reference value :  1.74506e-04
 Reference value :  1.74508e-04
 Reference value :  1.74509e-04
 Reference value :  1.74510e-04
 Reference value :  1.74511e-04
 Reference value :  1.74513e-04
 Reference value :  1.74514e-04
 Reference value :  1.74516e-04
 Reference value :  1.74517e-04
 Reference value :  1.74519e-04
 Reference value :  1.74522e-04
 Reference value :  1.74527e-04
 Reference value :  1.74537e-04
 Reference value :  1.74556e-04
 Reference value :  1.74593e-04
 Reference value :  1.74667e-04
 Reference value :  1.74750e-04
 Reference value :  1.74750e-04
 Reference value :  1.74750e-04
 Reference value :  1.74750e-04
 Reference value :  1.74750e-04
 Reference value :  1.74750e-04
 Reference value :  1.74750e-04
 Reference value :  1.74750e-04
 Reference value :  1.74750e-04
 Reference value :  1.74750e-04
 Reference value :  1.74750e-04
 Reference value :  1.74750e-04
 Reference value :  1.74750e-04
 Reference value :  1.74751e-04
 Reference value :  1.74751e-04
 Reference value :  1.74751e-04
 Reference value :  1.74752e-04
 Reference value :  1.74753e-04
 Reference value :  1.74753e-04
 Reference value :  1.74754e-04
 Reference value :  1.74755e-04
 Reference value :  1.74756e-04
 Reference value :  1.74757e-04
 Reference value :  1.74758e-04
 Reference value :  1.74759e-04
 Reference value :  1.74760e-04
 Reference value :  1.74761e-04
 Reference value :  1.74763e-04
 Reference value :  1.74764e-04
 Reference value :  1.74767e-04
 Reference value :  1.74770e-04
 Reference value :  1.74775e-04
 Reference value :  1.74784e-04
 Reference value :  1.74800e-04
 Reference value :  1.74831e-04
 Reference value :  1.74893e-04
 Reference value :  1.75000e-04
 Reference value :  1.75000e-04
 Reference value :  1.75000e-04
 Reference value :  1.75000e-04
 Reference value :  1.75000e-04
 Reference value :  1.75000e-04
 Reference value :  1.75000e-04
 Reference value :  1.75000e-04
 Reference value :  1.75000e-04
 Reference value :  1.75000e-04
 Reference value :  1.75000e-04
 Reference value :  1.75001e-04
 Reference value :  1.75001e-04
 Reference value :  1.75001e-04
 Reference value :  1.75002e-04
 Reference value :  1.75003e-04
 Reference value :  1.75003e-04
 Reference value :  1.75004e-04
 Reference value :  1.75005e-04
 Reference value :  1.75005e-04
 Reference value :  1.75006e-04
 Reference value :  1.75007e-04
 Reference value :  1.75008e-04
 Reference value :  1.75009e-04
 Reference value :  1.75010e-04
 Reference value :  1.75011e-04
 Reference value :  1.75013e-04
 Reference value :  1.75014e-04
 Reference value :  1.75015e-04
 Reference value :  1.75017e-04
 Reference value :  1.75018e-04
 Reference value :  1.75020e-04
 Reference value :  1.75021e-04
 Reference value :  1.75022e-04
 Reference value :  1.75023e-04
 Reference value :  1.75025e-04
 Reference value :  1.75026e-04
 Reference value :  1.75028e-04
 Reference value :  1.75030e-04
 Reference value :  1.75032e-04
 Reference value :  1.75036e-04
 Reference value :  1.75040e-04
 Reference value :  1.75044e-04
 Reference value :  1.75048e-04
 Reference value :  1.75051e-04
 Reference value :  1.75054e-04
 Reference value :  1.75057e-04
 Reference value :  1.75061e-04
 Reference value :  1.75067e-04
 Reference value :  1.75073e-04
 Reference value :  1.75084e-04
 Reference value :  1.75098e-04
 Reference value :  1.75118e-04
 Reference value :  1.75148e-04
 Reference value :  1.75196e-04
 Reference value :  1.75250e-04
 Reference value :  1.75250e-04
 Reference value :  1.75250e-04
 Reference value :  1.75250e-04
 Reference value :  1.75250e-04
 Reference value :  1.75250e-04
 Reference value :  1.75250e-04
 Reference value :  1.75250e-04
 Reference value :  1.75250e-04
 Reference value :  1.75250e-04
 Reference value :  1.75250e-04
 Reference value :  1.75250e-04
 Reference value :  1.75250e-04
 Reference value :  1.75251e-04
 Reference value :  1.75251e-04
 Reference value :  1.75251e-04
 Reference value :  1.75252e-04
 Reference value :  1.75253e-04
 Reference value :  1.75253e-04
 Reference value :  1.75255e-04
 Reference value :  1.75255e-04
 Reference value :  1.75256e-04
 Reference value :  1.75257e-04
 Reference value :  1.75258e-04
 Reference value :  1.75259e-04
 Reference value :  1.75261e-04
 Reference value :  1.75263e-04
 Reference value :  1.75266e-04
 Reference value :  1.75271e-04
 Reference value :  1.75279e-04
 Reference value :  1.75296e-04
 Reference value :  1.75324e-04
 Reference value :  1.75382e-04
 Reference value :  1.75477e-04
 Reference value :  1.75500e-04
 Reference value :  1.75500e-04
 Reference value :  1.75500e-04
 Reference value :  1.75500e-04
 Reference value :  1.75500e-04
 Reference value :  1.75500e-04
 Reference value :  1.75500e-04
 Reference value :  1.75500e-04
 Reference value :  1.75500e-04
 Reference value :  1.75500e-04
 Reference value :  1.75500e-04
 Reference value :  1.75501e-04
 Reference value :  1.75501e-04
 Reference value :  1.75501e-04
 Reference value :  1.75502e-04
 Reference value :  1.75503e-04
 Reference value :  1.75503e-04
 Reference value :  1.75504e-04
 Reference value :  1.75505e-04
 Reference value :  1.75505e-04
 Reference value :  1.75506e-04
 Reference value :  1.75508e-04
 Reference value :  1.75509e-04
 Reference value :  1.75510e-04
 Reference value :  1.75511e-04
 Reference value :  1.75513e-04
 Reference value :  1.75514e-04
 Reference value :  1.75515e-04
 Reference value :  1.75517e-04
 Reference value :  1.75519e-04
 Reference value :  1.75522e-04
 Reference value :  1.75527e-04
 Reference value :  1.75537e-04
 Reference value :  1.75557e-04
 Reference value :  1.75597e-04
 Reference value :  1.75646e-04
 Reference value :  1.75729e-04
 Reference value :  1.75750e-04
 Reference value :  1.75750e-04
 Reference value :  1.75750e-04
 Reference value :  1.75750e-04
 Reference value :  1.75750e-04
 Reference value :  1.75750e-04
 Reference value :  1.75750e-04
 Reference value :  1.75750e-04
 Reference value :  1.75750e-04
 Reference value :  1.75750e-04
 Reference value :  1.75750e-04
 Reference value :  1.75750e-04
 Reference value :  1.75750e-04
 Reference value :  1.75751e-04
 Reference value :  1.75751e-04
 Reference value :  1.75751e-04
 Reference value :  1.75752e-04
 Reference value :  1.75753e-04
 Reference value :  1.75753e-04
 Reference value :  1.75755e-04
 Reference value :  1.75755e-04
 Reference value :  1.75756e-04
 Reference value :  1.75757e-04
 Reference value :  1.75758e-04
 Reference value :  1.75759e-04
 Reference value :  1.75760e-04
 Reference value :  1.75761e-04
 Reference value :  1.75763e-04
 Reference value :  1.75764e-04
 Reference value :  1.75767e-04
 Reference value :  1.75770e-04
 Reference value :  1.75775e-04
 Reference value :  1.75784e-04
 Reference value :  1.75801e-04
 Reference value :  1.75835e-04
 Reference value :  1.75903e-04
 Reference value :  1.76000e-04
 Reference value :  1.76000e-04
 Reference value :  1.76000e-04
 Reference value :  1.76000e-04
 Reference value :  1.76000e-04
 Reference value :  1.76000e-04
 Reference value :  1.76000e-04
 Reference value :  1.76000e-04
 Reference value :  1.76000e-04
 Reference value :  1.76000e-04
 Reference value :  1.76000e-04
 Reference value :  1.76001e-04
 Reference value :  1.76001e-04
 Reference value :  1.76001e-04
 Reference value :  1.76002e-04
 Reference value :  1.76003e-04
 Reference value :  1.76003e-04
 Reference value :  1.76004e-04
 Reference value :  1.76005e-04
 Reference value :  1.76005e-04
 Reference value :  1.76006e-04
 Reference value :  1.76007e-04
 Reference value :  1.76008e-04
 Reference value :  1.76009e-04
 Reference value :  1.76010e-04
 Reference value :  1.76011e-04
 Reference value :  1.76012e-04
 Reference value :  1.76014e-04
 Reference value :  1.76015e-04
 Reference value :  1.76017e-04
 Reference value :  1.76019e-04
 Reference value :  1.76021e-04
 Reference value :  1.76022e-04
 Reference value :  1.76023e-04
 Reference value :  1.76024e-04
 Reference value :  1.76026e-04
 Reference value :  1.76027e-04
 Reference value :  1.76028e-04
 Reference value :  1.76029e-04
 Reference value :  1.76031e-04
 Reference value :  1.76033e-04
 Reference value :  1.76036e-04
 Reference value :  1.76041e-04
 Reference value :  1.76050e-04
 Reference value :  1.76057e-04
 Reference value :  1.76064e-04
 Reference value :  1.76073e-04
 Reference value :  1.76091e-04
 Reference value :  1.76123e-04
 Reference value :  1.76173e-04
 Reference value :  1.76250e-04
 Reference value :  1.76250e-04
 Reference value :  1.76250e-04
 Reference value :  1.76250e-04
 Reference value :  1.76250e-04
 Reference value :  1.76250e-04
 Reference value :  1.76250e-04
 Reference value :  1.76250e-04
 Reference value :  1.76250e-04
 Reference value :  1.76250e-04
 Reference value :  1.76250e-04
 Reference value :  1.76250e-04
 Reference value :  1.76250e-04
 Reference value :  1.76251e-04
 Reference value :  1.76251e-04
 Reference value :  1.76251e-04
 Reference value :  1.76252e-04
 Reference value :  1.76253e-04
 Reference value :  1.76253e-04
 Reference value :  1.76254e-04
 Reference value :  1.76255e-04
 Reference value :  1.76256e-04
 Reference value :  1.76257e-04
 Reference value :  1.76258e-04
 Reference value :  1.76259e-04
 Reference value :  1.76261e-04
 Reference value :  1.76263e-04
 Reference value :  1.76266e-04
 Reference value :  1.76271e-04
 Reference value :  1.76279e-04
 Reference value :  1.76296e-04
 Reference value :  1.76324e-04
 Reference value :  1.76381e-04
 Reference value :  1.76496e-04
 Reference value :  1.76500e-04
 Reference value :  1.76500e-04
 Reference value :  1.76500e-04
 Reference value :  1.76500e-04
 Reference value :  1.76500e-04
 Reference value :  1.76500e-04
 Reference value :  1.76500e-04
 Reference value :  1.76500e-04
 Reference value :  1.76500e-04
 Reference value :  1.76500e-04
 Reference value :  1.76500e-04
 Reference value :  1.76501e-04
 Reference value :  1.76501e-04
 Reference value :  1.76501e-04
 Reference value :  1.76502e-04
 Reference value :  1.76503e-04
 Reference value :  1.76503e-04
 Reference value :  1.76504e-04
 Reference value :  1.76505e-04
 Reference value :  1.76505e-04
 Reference value :  1.76506e-04
 Reference value :  1.76508e-04
 Reference value :  1.76509e-04
 Reference value :  1.76510e-04
 Reference value :  1.76511e-04
 Reference value :  1.76513e-04
 Reference value :  1.76514e-04
 Reference value :  1.76516e-04
 Reference value :  1.76517e-04
 Reference value :  1.76519e-04
 Reference value :  1.76523e-04
 Reference value :  1.76528e-04
 Reference value :  1.76537e-04
 Reference value :  1.76555e-04
 Reference value :  1.76590e-04
 Reference value :  1.76658e-04
 Reference value :  1.76750e-04
 Reference value :  1.76750e-04
 Reference value :  1.76750e-04
 Reference value :  1.76750e-04
 Reference value :  1.76750e-04
 Reference value :  1.76750e-04
 Reference value :  1.76750e-04
 Reference value :  1.76750e-04
 Reference value :  1.76750e-04
 Reference value :  1.76750e-04
 Reference value :  1.76750e-04
 Reference value :  1.76750e-04
 Reference value :  1.76750e-04
 Reference value :  1.76751e-04
 Reference value :  1.76751e-04
 Reference value :  1.76751e-04
 Reference value :  1.76752e-04
 Reference value :  1.76753e-04
 Reference value :  1.76753e-04
 Reference value :  1.76754e-04
 Reference value :  1.76755e-04
 Reference value :  1.76756e-04
 Reference value :  1.76757e-04
 Reference value :  1.76758e-04
 Reference value :  1.76759e-04
 Reference value :  1.76760e-04
 Reference value :  1.76762e-04
 Reference value :  1.76764e-04
 Reference value :  1.76768e-04
 Reference value :  1.76773e-04
 Reference value :  1.76783e-04
 Reference value :  1.76803e-04
 Reference value :  1.76841e-04
 Reference value :  1.76917e-04
 Reference value :  1.77000e-04
 Reference value :  1.77000e-04
 Reference value :  1.77000e-04
 Reference value :  1.77000e-04
 Reference value :  1.77000e-04
 Reference value :  1.77000e-04
 Reference value :  1.77000e-04
 Reference value :  1.77000e-04
 Reference value :  1.77000e-04
 Reference value :  1.77000e-04
 Reference value :  1.77000e-04
 Reference value :  1.77001e-04
 Reference value :  1.77001e-04
 Reference value :  1.77001e-04
 Reference value :  1.77002e-04
 Reference value :  1.77003e-04
 Reference value :  1.77003e-04
 Reference value :  1.77004e-04
 Reference value :  1.77005e-04
 Reference value :  1.77005e-04
 Reference value :  1.77006e-04
 Reference value :  1.77007e-04
 Reference value :  1.77008e-04
 Reference value :  1.77009e-04
 Reference value :  1.77010e-04
 Reference value :  1.77011e-04
 Reference value :  1.77013e-04
 Reference value :  1.77015e-04
 Reference value :  1.77018e-04
 Reference value :  1.77020e-04
 Reference value :  1.77022e-04
 Reference value :  1.77024e-04
 Reference value :  1.77026e-04
 Reference value :  1.77027e-04
 Reference value :  1.77029e-04
 Reference value :  1.77032e-04
 Reference value :  1.77034e-04
 Reference value :  1.77038e-04
 Reference value :  1.77041e-04
 Reference value :  1.77046e-04
 Reference value :  1.77051e-04
 Reference value :  1.77060e-04
 Reference value :  1.77074e-04
 Reference value :  1.77092e-04
 Reference value :  1.77113e-04
 Reference value :  1.77129e-04
 Reference value :  1.77147e-04
 Reference value :  1.77167e-04
 Reference value :  1.77190e-04
 Reference value :  1.77237e-04
 Reference value :  1.77250e-04
 Reference value :  1.77250e-04
 Reference value :  1.77250e-04
 Reference value :  1.77250e-04
 Reference value :  1.77250e-04
 Reference value :  1.77250e-04
 Reference value :  1.77250e-04
 Reference value :  1.77250e-04
 Reference value :  1.77250e-04
 Reference value :  1.77250e-04
 Reference value :  1.77250e-04
 Reference value :  1.77250e-04
 Reference value :  1.77250e-04
 Reference value :  1.77251e-04
 Reference value :  1.77251e-04
 Reference value :  1.77251e-04
 Reference value :  1.77252e-04
 Reference value :  1.77253e-04
 Reference value :  1.77253e-04
 Reference value :  1.77254e-04
 Reference value :  1.77255e-04
 Reference value :  1.77256e-04
 Reference value :  1.77257e-04
 Reference value :  1.77258e-04
 Reference value :  1.77259e-04
 Reference value :  1.77261e-04
 Reference value :  1.77263e-04
 Reference value :  1.77266e-04
 Reference value :  1.77271e-04
 Reference value :  1.77279e-04
 Reference value :  1.77296e-04
 Reference value :  1.77324e-04
 Reference value :  1.77381e-04
 Reference value :  1.77495e-04
 Reference value :  1.77500e-04
 Reference value :  1.77500e-04
 Reference value :  1.77500e-04
 Reference value :  1.77500e-04
 Reference value :  1.77500e-04
 Reference value :  1.77500e-04
 Reference value :  1.77500e-04
 Reference value :  1.77500e-04
 Reference value :  1.77500e-04
 Reference value :  1.77500e-04
 Reference value :  1.77500e-04
 Reference value :  1.77501e-04
 Reference value :  1.77501e-04
 Reference value :  1.77501e-04
 Reference value :  1.77502e-04
 Reference value :  1.77503e-04
 Reference value :  1.77503e-04
 Reference value :  1.77504e-04
 Reference value :  1.77505e-04
 Reference value :  1.77505e-04
 Reference value :  1.77506e-04
 Reference value :  1.77508e-04
 Reference value :  1.77509e-04
 Reference value :  1.77510e-04
 Reference value :  1.77512e-04
 Reference value :  1.77513e-04
 Reference value :  1.77514e-04
 Reference value :  1.77516e-04
 Reference value :  1.77517e-04
 Reference value :  1.77519e-04
 Reference value :  1.77523e-04
 Reference value :  1.77528e-04
 Reference value :  1.77538e-04
 Reference value :  1.77558e-04
 Reference value :  1.77597e-04
 Reference value :  1.77677e-04
 Reference value :  1.77750e-04
 Reference value :  1.77750e-04
 Reference value :  1.77750e-04
 Reference value :  1.77750e-04
 Reference value :  1.77750e-04
 Reference value :  1.77750e-04
 Reference value :  1.77750e-04
 Reference value :  1.77750e-04
 Reference value :  1.77750e-04
 Reference value :  1.77750e-04
 Reference value :  1.77750e-04
 Reference value :  1.77750e-04
 Reference value :  1.77750e-04
 Reference value :  1.77751e-04
 Reference value :  1.77751e-04
 Reference value :  1.77751e-04
 Reference value :  1.77752e-04
 Reference value :  1.77753e-04
 Reference value :  1.77753e-04
 Reference value :  1.77754e-04
 Reference value :  1.77755e-04
 Reference value :  1.77756e-04
 Reference value :  1.77757e-04
 Reference value :  1.77758e-04
 Reference value :  1.77759e-04
 Reference value :  1.77760e-04
 Reference value :  1.77762e-04
 Reference value :  1.77764e-04
 Reference value :  1.77768e-04
 Reference value :  1.77773e-04
 Reference value :  1.77783e-04
 Reference value :  1.77803e-04
 Reference value :  1.77843e-04
 Reference value :  1.77922e-04
 Reference value :  1.78000e-04
 Reference value :  1.78000e-04
 Reference value :  1.78000e-04
 Reference value :  1.78000e-04
 Reference value :  1.78000e-04
 Reference value :  1.78000e-04
 Reference value :  1.78000e-04
 Reference value :  1.78000e-04
 Reference value :  1.78000e-04
 Reference value :  1.78000e-04
 Reference value :  1.78000e-04
 Reference value :  1.78001e-04
 Reference value :  1.78001e-04
 Reference value :  1.78001e-04
 Reference value :  1.78002e-04
 Reference value :  1.78003e-04
 Reference value :  1.78003e-04
 Reference value :  1.78004e-04
 Reference value :  1.78005e-04
 Reference value :  1.78005e-04
 Reference value :  1.78006e-04
 Reference value :  1.78007e-04
 Reference value :  1.78008e-04
 Reference value :  1.78009e-04
 Reference value :  1.78010e-04
 Reference value :  1.78011e-04
 Reference value :  1.78013e-04
 Reference value :  1.78016e-04
 Reference value :  1.78019e-04
 Reference value :  1.78021e-04
 Reference value :  1.78024e-04
 Reference value :  1.78027e-04
 Reference value :  1.78030e-04
 Reference value :  1.78036e-04
 Reference value :  1.78043e-04
 Reference value :  1.78054e-04
 Reference value :  1.78071e-04
 Reference value :  1.78099e-04
 Reference value :  1.78148e-04
 Reference value :  1.78228e-04
 Reference value :  1.78250e-04
 Reference value :  1.78250e-04
 Reference value :  1.78250e-04
 Reference value :  1.78250e-04
 Reference value :  1.78250e-04
 Reference value :  1.78250e-04
 Reference value :  1.78250e-04
 Reference value :  1.78250e-04
 Reference value :  1.78250e-04
 Reference value :  1.78250e-04
 Reference value :  1.78250e-04
 Reference value :  1.78250e-04
 Reference value :  1.78250e-04
 Reference value :  1.78251e-04
 Reference value :  1.78251e-04
 Reference value :  1.78251e-04
 Reference value :  1.78252e-04
 Reference value :  1.78253e-04
 Reference value :  1.78254e-04
 Reference value :  1.78255e-04
 Reference value :  1.78256e-04
 Reference value :  1.78257e-04
 Reference value :  1.78258e-04
 Reference value :  1.78260e-04
 Reference value :  1.78262e-04
 Reference value :  1.78265e-04
 Reference value :  1.78269e-04
 Reference value :  1.78276e-04
 Reference value :  1.78289e-04
 Reference value :  1.78315e-04
 Reference value :  1.78366e-04
 Reference value :  1.78470e-04
 Reference value :  1.78500e-04
No. of Data Rows : 27861
ngspice-44 done
