
Note: Compatibility modes selected: hs a


Circuit: ** sch_path: /home/ece/cace/sar-adc-using-sky130-pdk/runs/run_2025-09-12_19-06-21/parameters/sndr/run_0/sndr_enob_fom.sch

option SCALE: Scale is set to 1e-06 for instance and model parameters
option SCALE: Scale is set to 1e-06 for instance and model parameters
option SCALE: Scale is set to 1e-06 for instance and model parameters
option SCALE: Scale is set to 1e-06 for instance and model parameters
Doing analysis at TEMP = 27.000000 and TNOM = 27.000000

Using KLU as Direct Linear Solver
Operating point simulation skipped by 'uic',
  now using transient initial conditions.
 Reference value :  1.00000e-12
 Reference value :  1.02772e-12
 Reference value :  1.08316e-12
 Reference value :  1.19404e-12
 Reference value :  1.33849e-12
 Reference value :  1.62739e-12
 Reference value :  2.20519e-12
 Reference value :  3.06275e-12
 Reference value :  3.96303e-12
 Reference value :  5.17196e-12
 Reference value :  6.88101e-12
 Reference value :  1.00316e-11
 Reference value :  1.36877e-11
 Reference value :  2.03370e-11
 Reference value :  2.72215e-11
 Reference value :  3.61462e-11
 Reference value :  4.70643e-11
 Reference value :  6.49518e-11
 Reference value :  8.43174e-11
 Reference value :  1.00000e-10
 Reference value :  1.01321e-10
 Reference value :  1.03964e-10
 Reference value :  1.09250e-10
 Reference value :  1.19822e-10
 Reference value :  1.40965e-10
 Reference value :  1.83251e-10
 Reference value :  2.67824e-10
 Reference value :  4.19409e-10
 Reference value :  5.90294e-10
 Reference value :  8.63504e-10
 Reference value :  1.24570e-09
 Reference value :  1.70648e-09
 Reference value :  2.44722e-09
 Reference value :  3.17631e-09
 Reference value :  3.87226e-09
 Reference value :  4.67961e-09
 Reference value :  5.61617e-09
 Reference value :  6.52150e-09
 Reference value :  7.77312e-09
 Reference value :  9.00780e-09
 Reference value :  1.02927e-08
 Reference value :  1.11556e-08
 Reference value :  1.19558e-08
 Reference value :  1.28737e-08
 Reference value :  1.38453e-08
 Reference value :  1.56174e-08
 Reference value :  1.79840e-08
 Reference value :  2.08010e-08
 Reference value :  2.35118e-08
 Reference value :  2.60972e-08
 Reference value :  2.89047e-08
 Reference value :  3.16890e-08
 Reference value :  3.48147e-08
 Reference value :  4.08825e-08
 Reference value :  4.68111e-08
 Reference value :  5.86683e-08
 Reference value :  8.23826e-08
 Reference value :  1.25241e-07
 Reference value :  1.81794e-07
 Reference value :  2.50100e-07
 Reference value :  2.50110e-07
 Reference value :  2.50130e-07
 Reference value :  2.50170e-07
 Reference value :  2.50200e-07
 Reference value :  2.50201e-07
 Reference value :  2.50202e-07
 Reference value :  2.50204e-07
 Reference value :  2.50208e-07
 Reference value :  2.50216e-07
 Reference value :  2.50233e-07
 Reference value :  2.50267e-07
 Reference value :  2.50335e-07
 Reference value :  2.50412e-07
 Reference value :  2.50567e-07
 Reference value :  2.50716e-07
 Reference value :  2.51014e-07
 Reference value :  2.51339e-07
 Reference value :  2.51860e-07
 Reference value :  2.52428e-07
 Reference value :  2.53220e-07
 Reference value :  2.54043e-07
 Reference value :  2.55121e-07
 Reference value :  2.55872e-07
 Reference value :  2.56729e-07
 Reference value :  2.57735e-07
 Reference value :  2.58842e-07
 Reference value :  2.60167e-07
 Reference value :  2.62402e-07
 Reference value :  2.64457e-07
 Reference value :  2.68048e-07
 Reference value :  2.72803e-07
 Reference value :  2.82313e-07
 Reference value :  2.98803e-07
 Reference value :  3.27012e-07
 Reference value :  3.55672e-07
 Reference value :  3.75893e-07
 Reference value :  3.90847e-07
 Reference value :  4.01025e-07
 Reference value :  4.07158e-07
 Reference value :  4.14572e-07
 Reference value :  4.23754e-07
 Reference value :  4.33425e-07
 Reference value :  4.49196e-07
 Reference value :  4.71179e-07
 Reference value :  5.00000e-07
 Reference value :  5.00010e-07
 Reference value :  5.00030e-07
 Reference value :  5.00070e-07
 Reference value :  5.00100e-07
 Reference value :  5.00104e-07
 Reference value :  5.00112e-07
 Reference value :  5.00129e-07
 Reference value :  5.00162e-07
 Reference value :  5.00229e-07
 Reference value :  5.00362e-07
 Reference value :  5.00537e-07
 Reference value :  5.00888e-07
 Reference value :  5.01501e-07
 Reference value :  5.02193e-07
 Reference value :  5.02773e-07
 Reference value :  5.03492e-07
 Reference value :  5.04165e-07
 Reference value :  5.05152e-07
 Reference value :  5.06132e-07
 Reference value :  5.07110e-07
 Reference value :  5.08543e-07
 Reference value :  5.09903e-07
 Reference value :  5.11800e-07
 Reference value :  5.14079e-07
 Reference value :  5.15945e-07
 Reference value :  5.17915e-07
 Reference value :  5.19968e-07
 Reference value :  5.22365e-07
 Reference value :  5.25022e-07
 Reference value :  5.27783e-07
 Reference value :  5.32964e-07
 Reference value :  5.41039e-07
 Reference value :  5.50731e-07
 Reference value :  5.70117e-07
 Reference value :  6.07577e-07
 Reference value :  6.77461e-07
 Reference value :  7.50100e-07
 Reference value :  7.50110e-07
 Reference value :  7.50130e-07
 Reference value :  7.50170e-07
 Reference value :  7.50200e-07
 Reference value :  7.50201e-07
 Reference value :  7.50202e-07
 Reference value :  7.50205e-07
 Reference value :  7.50211e-07
 Reference value :  7.50224e-07
 Reference value :  7.50248e-07
 Reference value :  7.50297e-07
 Reference value :  7.50395e-07
 Reference value :  7.50590e-07
 Reference value :  7.50977e-07
 Reference value :  7.51389e-07
 Reference value :  7.51911e-07
 Reference value :  7.52518e-07
 Reference value :  7.53316e-07
 Reference value :  7.54225e-07
 Reference value :  7.55411e-07
 Reference value :  7.56506e-07
 Reference value :  7.57514e-07
 Reference value :  7.58593e-07
 Reference value :  7.59793e-07
 Reference value :  7.61087e-07
 Reference value :  7.62343e-07
 Reference value :  7.63795e-07
 Reference value :  7.66018e-07
 Reference value :  7.68331e-07
 Reference value :  7.72283e-07
 Reference value :  7.79736e-07
 Reference value :  7.91183e-07
 Reference value :  8.12894e-07
 Reference value :  8.49211e-07
 Reference value :  9.13010e-07
 Reference value :  1.00000e-06
 Reference value :  1.00001e-06
 Reference value :  1.00003e-06
 Reference value :  1.00007e-06
 Reference value :  1.00010e-06
 Reference value :  1.00010e-06
 Reference value :  1.00011e-06
 Reference value :  1.00013e-06
 Reference value :  1.00016e-06
 Reference value :  1.00023e-06
 Reference value :  1.00036e-06
 Reference value :  1.00054e-06
 Reference value :  1.00089e-06
 Reference value :  1.00150e-06
 Reference value :  1.00219e-06
 Reference value :  1.00281e-06
 Reference value :  1.00346e-06
 Reference value :  1.00414e-06
 Reference value :  1.00499e-06
 Reference value :  1.00588e-06
 Reference value :  1.00676e-06
 Reference value :  1.00765e-06
 Reference value :  1.00864e-06
 Reference value :  1.00967e-06
 Reference value :  1.01060e-06
 Reference value :  1.01207e-06
 Reference value :  1.01356e-06
 Reference value :  1.01595e-06
 Reference value :  1.01768e-06
 Reference value :  1.01952e-06
 Reference value :  1.02118e-06
 Reference value :  1.02266e-06
 Reference value :  1.02413e-06
 Reference value :  1.02573e-06
 Reference value :  1.02719e-06
 Reference value :  1.02902e-06
 Reference value :  1.03119e-06
 Reference value :  1.03359e-06
 Reference value :  1.03800e-06
 Reference value :  1.04419e-06
 Reference value :  1.05504e-06
 Reference value :  1.07383e-06
 Reference value :  1.10514e-06
 Reference value :  1.15174e-06
 Reference value :  1.19491e-06
 Reference value :  1.22627e-06
 Reference value :  1.24667e-06
 Reference value :  1.25010e-06
 Reference value :  1.25011e-06
 Reference value :  1.25013e-06
 Reference value :  1.25017e-06
 Reference value :  1.25020e-06
 Reference value :  1.25020e-06
 Reference value :  1.25020e-06
 Reference value :  1.25021e-06
 Reference value :  1.25021e-06
 Reference value :  1.25022e-06
 Reference value :  1.25025e-06
 Reference value :  1.25030e-06
 Reference value :  1.25039e-06
 Reference value :  1.25059e-06
 Reference value :  1.25094e-06
 Reference value :  1.25136e-06
 Reference value :  1.25188e-06
 Reference value :  1.25249e-06
 Reference value :  1.25326e-06
 Reference value :  1.25414e-06
 Reference value :  1.25533e-06
 Reference value :  1.25623e-06
 Reference value :  1.25719e-06
 Reference value :  1.25826e-06
 Reference value :  1.25982e-06
 Reference value :  1.26128e-06
 Reference value :  1.26378e-06
 Reference value :  1.26678e-06
 Reference value :  1.27231e-06
 Reference value :  1.28338e-06
 Reference value :  1.30292e-06
 Reference value :  1.34200e-06
 Reference value :  1.41563e-06
 Reference value :  1.50000e-06
 Reference value :  1.50001e-06
 Reference value :  1.50003e-06
 Reference value :  1.50007e-06
 Reference value :  1.50010e-06
 Reference value :  1.50010e-06
 Reference value :  1.50011e-06
 Reference value :  1.50013e-06
 Reference value :  1.50016e-06
 Reference value :  1.50023e-06
 Reference value :  1.50036e-06
 Reference value :  1.50053e-06
 Reference value :  1.50087e-06
 Reference value :  1.50145e-06
 Reference value :  1.50221e-06
 Reference value :  1.50288e-06
 Reference value :  1.50356e-06
 Reference value :  1.50426e-06
 Reference value :  1.50524e-06
 Reference value :  1.50619e-06
 Reference value :  1.50715e-06
 Reference value :  1.50858e-06
 Reference value :  1.50996e-06
 Reference value :  1.51127e-06
 Reference value :  1.51268e-06
 Reference value :  1.51422e-06
 Reference value :  1.51590e-06
 Reference value :  1.51747e-06
 Reference value :  1.51953e-06
 Reference value :  1.52175e-06
 Reference value :  1.52565e-06
 Reference value :  1.53153e-06
 Reference value :  1.54179e-06
 Reference value :  1.56076e-06
 Reference value :  1.59410e-06
 Reference value :  1.65749e-06
 Reference value :  1.75010e-06
 Reference value :  1.75011e-06
 Reference value :  1.75013e-06
 Reference value :  1.75017e-06
 Reference value :  1.75020e-06
 Reference value :  1.75020e-06
 Reference value :  1.75020e-06
 Reference value :  1.75021e-06
 Reference value :  1.75021e-06
 Reference value :  1.75022e-06
 Reference value :  1.75025e-06
 Reference value :  1.75029e-06
 Reference value :  1.75039e-06
 Reference value :  1.75058e-06
 Reference value :  1.75092e-06
 Reference value :  1.75135e-06
 Reference value :  1.75187e-06
 Reference value :  1.75248e-06
 Reference value :  1.75324e-06
 Reference value :  1.75411e-06
 Reference value :  1.75529e-06
 Reference value :  1.75619e-06
 Reference value :  1.75714e-06
 Reference value :  1.75818e-06
 Reference value :  1.75930e-06
 Reference value :  1.76053e-06
 Reference value :  1.76297e-06
 Reference value :  1.76560e-06
 Reference value :  1.77023e-06
 Reference value :  1.77861e-06
 Reference value :  1.79537e-06
 Reference value :  1.82889e-06
 Reference value :  1.89405e-06
 Reference value :  2.00000e-06
 Reference value :  2.00001e-06
 Reference value :  2.00003e-06
 Reference value :  2.00007e-06
 Reference value :  2.00010e-06
 Reference value :  2.00010e-06
 Reference value :  2.00011e-06
 Reference value :  2.00013e-06
 Reference value :  2.00016e-06
 Reference value :  2.00023e-06
 Reference value :  2.00036e-06
 Reference value :  2.00053e-06
 Reference value :  2.00087e-06
 Reference value :  2.00145e-06
 Reference value :  2.00221e-06
 Reference value :  2.00288e-06
 Reference value :  2.00356e-06
 Reference value :  2.00427e-06
 Reference value :  2.00525e-06
 Reference value :  2.00603e-06
 Reference value :  2.00686e-06
 Reference value :  2.00785e-06
 Reference value :  2.00893e-06
 Reference value :  2.00992e-06
 Reference value :  2.01096e-06
 Reference value :  2.01237e-06
 Reference value :  2.01398e-06
 Reference value :  2.01628e-06
 Reference value :  2.01849e-06
 Reference value :  2.02053e-06
 Reference value :  2.02215e-06
 Reference value :  2.02370e-06
 Reference value :  2.02530e-06
 Reference value :  2.02697e-06
 Reference value :  2.02890e-06
 Reference value :  2.03082e-06
 Reference value :  2.03342e-06
 Reference value :  2.03794e-06
 Reference value :  2.04534e-06
 Reference value :  2.05944e-06
 Reference value :  2.07409e-06
 Reference value :  2.08737e-06
 Reference value :  2.09762e-06
 Reference value :  2.10532e-06
 Reference value :  2.11354e-06
 Reference value :  2.12102e-06
 Reference value :  2.12789e-06
 Reference value :  2.13517e-06
 Reference value :  2.14973e-06
 Reference value :  2.16555e-06
 Reference value :  2.19208e-06
 Reference value :  2.23556e-06
 Reference value :  2.25010e-06
 Reference value :  2.25011e-06
 Reference value :  2.25013e-06
 Reference value :  2.25017e-06
 Reference value :  2.25020e-06
 Reference value :  2.25020e-06
 Reference value :  2.25020e-06
 Reference value :  2.25021e-06
 Reference value :  2.25021e-06
 Reference value :  2.25022e-06
 Reference value :  2.25025e-06
 Reference value :  2.25029e-06
 Reference value :  2.25039e-06
 Reference value :  2.25058e-06
 Reference value :  2.25092e-06
 Reference value :  2.25135e-06
 Reference value :  2.25187e-06
 Reference value :  2.25248e-06
 Reference value :  2.25324e-06
 Reference value :  2.25411e-06
 Reference value :  2.25524e-06
 Reference value :  2.25616e-06
 Reference value :  2.25712e-06
 Reference value :  2.25821e-06
 Reference value :  2.25977e-06
 Reference value :  2.26131e-06
 Reference value :  2.26378e-06
 Reference value :  2.26678e-06
 Reference value :  2.27213e-06
 Reference value :  2.28282e-06
 Reference value :  2.30197e-06
 Reference value :  2.33980e-06
 Reference value :  2.41137e-06
 Reference value :  2.50000e-06
 Reference value :  2.50001e-06
 Reference value :  2.50003e-06
 Reference value :  2.50007e-06
 Reference value :  2.50010e-06
 Reference value :  2.50010e-06
 Reference value :  2.50011e-06
 Reference value :  2.50013e-06
 Reference value :  2.50016e-06
 Reference value :  2.50023e-06
 Reference value :  2.50036e-06
 Reference value :  2.50053e-06
 Reference value :  2.50087e-06
 Reference value :  2.50145e-06
 Reference value :  2.50221e-06
 Reference value :  2.50284e-06
 Reference value :  2.50350e-06
 Reference value :  2.50419e-06
 Reference value :  2.50515e-06
 Reference value :  2.50611e-06
 Reference value :  2.50707e-06
 Reference value :  2.50855e-06
 Reference value :  2.50991e-06
 Reference value :  2.51128e-06
 Reference value :  2.51284e-06
 Reference value :  2.51460e-06
 Reference value :  2.51628e-06
 Reference value :  2.51819e-06
 Reference value :  2.52040e-06
 Reference value :  2.52425e-06
 Reference value :  2.53025e-06
 Reference value :  2.54130e-06
 Reference value :  2.56272e-06
 Reference value :  2.60129e-06
 Reference value :  2.67842e-06
 Reference value :  2.75010e-06
 Reference value :  2.75011e-06
 Reference value :  2.75013e-06
 Reference value :  2.75017e-06
 Reference value :  2.75020e-06
 Reference value :  2.75020e-06
 Reference value :  2.75020e-06
 Reference value :  2.75021e-06
 Reference value :  2.75021e-06
 Reference value :  2.75022e-06
 Reference value :  2.75025e-06
 Reference value :  2.75030e-06
 Reference value :  2.75039e-06
 Reference value :  2.75059e-06
 Reference value :  2.75094e-06
 Reference value :  2.75136e-06
 Reference value :  2.75188e-06
 Reference value :  2.75249e-06
 Reference value :  2.75325e-06
 Reference value :  2.75413e-06
 Reference value :  2.75531e-06
 Reference value :  2.75623e-06
 Reference value :  2.75720e-06
 Reference value :  2.75823e-06
 Reference value :  2.75934e-06
 Reference value :  2.76056e-06
 Reference value :  2.76184e-06
 Reference value :  2.76324e-06
 Reference value :  2.76536e-06
 Reference value :  2.76769e-06
 Reference value :  2.77128e-06
 Reference value :  2.77695e-06
 Reference value :  2.78829e-06
 Reference value :  2.81096e-06
 Reference value :  2.85625e-06
 Reference value :  2.94684e-06
 Reference value :  3.00000e-06
 Reference value :  3.00001e-06
 Reference value :  3.00003e-06
 Reference value :  3.00007e-06
 Reference value :  3.00010e-06
 Reference value :  3.00010e-06
 Reference value :  3.00011e-06
 Reference value :  3.00013e-06
 Reference value :  3.00016e-06
 Reference value :  3.00023e-06
 Reference value :  3.00036e-06
 Reference value :  3.00053e-06
 Reference value :  3.00087e-06
 Reference value :  3.00144e-06
 Reference value :  3.00221e-06
 Reference value :  3.00288e-06
 Reference value :  3.00356e-06
 Reference value :  3.00427e-06
 Reference value :  3.00513e-06
 Reference value :  3.00590e-06
 Reference value :  3.00673e-06
 Reference value :  3.00780e-06
 Reference value :  3.00879e-06
 Reference value :  3.00972e-06
 Reference value :  3.01075e-06
 Reference value :  3.01209e-06
 Reference value :  3.01365e-06
 Reference value :  3.01522e-06
 Reference value :  3.01693e-06
 Reference value :  3.01855e-06
 Reference value :  3.02025e-06
 Reference value :  3.02150e-06
 Reference value :  3.02268e-06
 Reference value :  3.02410e-06
 Reference value :  3.02558e-06
 Reference value :  3.02695e-06
 Reference value :  3.02868e-06
 Reference value :  3.03085e-06
 Reference value :  3.03321e-06
 Reference value :  3.03763e-06
 Reference value :  3.04409e-06
 Reference value :  3.05533e-06
 Reference value :  3.06655e-06
 Reference value :  3.07777e-06
 Reference value :  3.08898e-06
 Reference value :  3.09531e-06
 Reference value :  3.10147e-06
 Reference value :  3.10865e-06
 Reference value :  3.11827e-06
 Reference value :  3.13045e-06
 Reference value :  3.14658e-06
 Reference value :  3.16827e-06
 Reference value :  3.19711e-06
 Reference value :  3.23758e-06
 Reference value :  3.25010e-06
 Reference value :  3.25011e-06
 Reference value :  3.25013e-06
 Reference value :  3.25017e-06
 Reference value :  3.25020e-06
 Reference value :  3.25020e-06
 Reference value :  3.25020e-06
 Reference value :  3.25021e-06
 Reference value :  3.25021e-06
 Reference value :  3.25022e-06
 Reference value :  3.25025e-06
 Reference value :  3.25029e-06
 Reference value :  3.25039e-06
 Reference value :  3.25058e-06
 Reference value :  3.25092e-06
 Reference value :  3.25134e-06
 Reference value :  3.25187e-06
 Reference value :  3.25248e-06
 Reference value :  3.25323e-06
 Reference value :  3.25411e-06
 Reference value :  3.25530e-06
 Reference value :  3.25619e-06
 Reference value :  3.25713e-06
 Reference value :  3.25820e-06
 Reference value :  3.25976e-06
 Reference value :  3.26118e-06
 Reference value :  3.26374e-06
 Reference value :  3.26664e-06
 Reference value :  3.27208e-06
 Reference value :  3.28297e-06
 Reference value :  3.30218e-06
 Reference value :  3.34061e-06
 Reference value :  3.41361e-06
 Reference value :  3.50000e-06
 Reference value :  3.50001e-06
 Reference value :  3.50003e-06
 Reference value :  3.50007e-06
 Reference value :  3.50010e-06
 Reference value :  3.50010e-06
 Reference value :  3.50011e-06
 Reference value :  3.50013e-06
 Reference value :  3.50016e-06
 Reference value :  3.50023e-06
 Reference value :  3.50036e-06
 Reference value :  3.50053e-06
 Reference value :  3.50087e-06
 Reference value :  3.50145e-06
 Reference value :  3.50221e-06
 Reference value :  3.50288e-06
 Reference value :  3.50356e-06
 Reference value :  3.50426e-06
 Reference value :  3.50524e-06
 Reference value :  3.50619e-06
 Reference value :  3.50717e-06
 Reference value :  3.50861e-06
 Reference value :  3.51000e-06
 Reference value :  3.51128e-06
 Reference value :  3.51264e-06
 Reference value :  3.51417e-06
 Reference value :  3.51583e-06
 Reference value :  3.51764e-06
 Reference value :  3.51966e-06
 Reference value :  3.52354e-06
 Reference value :  3.52953e-06
 Reference value :  3.54150e-06
 Reference value :  3.56414e-06
 Reference value :  3.60477e-06
 Reference value :  3.68498e-06
 Reference value :  3.75010e-06
 Reference value :  3.75011e-06
 Reference value :  3.75013e-06
 Reference value :  3.75017e-06
 Reference value :  3.75020e-06
 Reference value :  3.75020e-06
 Reference value :  3.75020e-06
 Reference value :  3.75021e-06
 Reference value :  3.75021e-06
 Reference value :  3.75022e-06
 Reference value :  3.75025e-06
 Reference value :  3.75030e-06
 Reference value :  3.75039e-06
 Reference value :  3.75059e-06
 Reference value :  3.75094e-06
 Reference value :  3.75136e-06
 Reference value :  3.75188e-06
 Reference value :  3.75249e-06
 Reference value :  3.75325e-06
 Reference value :  3.75413e-06
 Reference value :  3.75531e-06
 Reference value :  3.75623e-06
 Reference value :  3.75719e-06
 Reference value :  3.75822e-06
 Reference value :  3.75933e-06
 Reference value :  3.76056e-06
 Reference value :  3.76300e-06
 Reference value :  3.76566e-06
 Reference value :  3.77032e-06
 Reference value :  3.77880e-06
 Reference value :  3.79576e-06
 Reference value :  3.82934e-06
 Reference value :  3.89438e-06
 Reference value :  4.00000e-06
 Reference value :  4.00001e-06
 Reference value :  4.00003e-06
 Reference value :  4.00007e-06
 Reference value :  4.00010e-06
 Reference value :  4.00010e-06
 Reference value :  4.00011e-06
 Reference value :  4.00013e-06
 Reference value :  4.00016e-06
 Reference value :  4.00023e-06
 Reference value :  4.00036e-06
 Reference value :  4.00053e-06
 Reference value :  4.00087e-06
 Reference value :  4.00145e-06
 Reference value :  4.00221e-06
 Reference value :  4.00288e-06
 Reference value :  4.00356e-06
 Reference value :  4.00427e-06
 Reference value :  4.00525e-06
 Reference value :  4.00603e-06
 Reference value :  4.00685e-06
 Reference value :  4.00785e-06
 Reference value :  4.00893e-06
 Reference value :  4.00993e-06
 Reference value :  4.01098e-06
 Reference value :  4.01233e-06
 Reference value :  4.01406e-06
 Reference value :  4.01669e-06
 Reference value :  4.01868e-06
 Reference value :  4.02081e-06
 Reference value :  4.02231e-06
 Reference value :  4.02380e-06
 Reference value :  4.02519e-06
 Reference value :  4.02677e-06
 Reference value :  4.02842e-06
 Reference value :  4.03064e-06
 Reference value :  4.03289e-06
 Reference value :  4.03740e-06
 Reference value :  4.04297e-06
 Reference value :  4.04816e-06
 Reference value :  4.05217e-06
 Reference value :  4.05771e-06
 Reference value :  4.06380e-06
 Reference value :  4.06816e-06
 Reference value :  4.07264e-06
 Reference value :  4.07714e-06
 Reference value :  4.08256e-06
 Reference value :  4.08959e-06
 Reference value :  4.09563e-06
 Reference value :  4.10264e-06
 Reference value :  4.11527e-06
 Reference value :  4.13011e-06
 Reference value :  4.15424e-06
 Reference value :  4.19179e-06
 Reference value :  4.24998e-06
 Reference value :  4.25010e-06
 Reference value :  4.25011e-06
 Reference value :  4.25013e-06
 Reference value :  4.25017e-06
 Reference value :  4.25020e-06
 Reference value :  4.25020e-06
 Reference value :  4.25020e-06
 Reference value :  4.25021e-06
 Reference value :  4.25021e-06
 Reference value :  4.25022e-06
 Reference value :  4.25025e-06
 Reference value :  4.25030e-06
 Reference value :  4.25039e-06
 Reference value :  4.25059e-06
 Reference value :  4.25093e-06
 Reference value :  4.25136e-06
 Reference value :  4.25188e-06
 Reference value :  4.25249e-06
 Reference value :  4.25325e-06
 Reference value :  4.25413e-06
 Reference value :  4.25526e-06
 Reference value :  4.25621e-06
 Reference value :  4.25719e-06
 Reference value :  4.25828e-06
 Reference value :  4.25986e-06
 Reference value :  4.26146e-06
 Reference value :  4.26392e-06
 Reference value :  4.26703e-06
 Reference value :  4.27250e-06
 Reference value :  4.28343e-06
 Reference value :  4.30244e-06
 Reference value :  4.33997e-06
 Reference value :  4.41240e-06
 Reference value :  4.50000e-06
 Reference value :  4.50001e-06
 Reference value :  4.50003e-06
 Reference value :  4.50007e-06
 Reference value :  4.50010e-06
 Reference value :  4.50010e-06
 Reference value :  4.50011e-06
 Reference value :  4.50013e-06
 Reference value :  4.50016e-06
 Reference value :  4.50023e-06
 Reference value :  4.50036e-06
 Reference value :  4.50053e-06
 Reference value :  4.50087e-06
 Reference value :  4.50145e-06
 Reference value :  4.50221e-06
 Reference value :  4.50284e-06
 Reference value :  4.50350e-06
 Reference value :  4.50419e-06
 Reference value :  4.50515e-06
 Reference value :  4.50611e-06
 Reference value :  4.50705e-06
 Reference value :  4.50854e-06
 Reference value :  4.50989e-06
 Reference value :  4.51119e-06
 Reference value :  4.51260e-06
 Reference value :  4.51393e-06
 Reference value :  4.51546e-06
 Reference value :  4.51706e-06
 Reference value :  4.51880e-06
 Reference value :  4.52230e-06
 Reference value :  4.52930e-06
 Reference value :  4.54113e-06
 Reference value :  4.56480e-06
 Reference value :  4.60922e-06
 Reference value :  4.69806e-06
 Reference value :  4.75010e-06
 Reference value :  4.75011e-06
 Reference value :  4.75013e-06
 Reference value :  4.75017e-06
 Reference value :  4.75020e-06
 Reference value :  4.75020e-06
 Reference value :  4.75020e-06
 Reference value :  4.75021e-06
 Reference value :  4.75021e-06
 Reference value :  4.75022e-06
 Reference value :  4.75025e-06
 Reference value :  4.75030e-06
 Reference value :  4.75039e-06
 Reference value :  4.75059e-06
 Reference value :  4.75093e-06
 Reference value :  4.75136e-06
 Reference value :  4.75188e-06
 Reference value :  4.75249e-06
 Reference value :  4.75325e-06
 Reference value :  4.75413e-06
 Reference value :  4.75531e-06
 Reference value :  4.75623e-06
 Reference value :  4.75720e-06
 Reference value :  4.75822e-06
 Reference value :  4.75933e-06
 Reference value :  4.76056e-06
 Reference value :  4.76184e-06
 Reference value :  4.76324e-06
 Reference value :  4.76537e-06
 Reference value :  4.76769e-06
 Reference value :  4.77130e-06
 Reference value :  4.77700e-06
 Reference value :  4.78841e-06
 Reference value :  4.81121e-06
 Reference value :  4.85645e-06
 Reference value :  4.94693e-06
 Reference value :  5.00000e-06
 Reference value :  5.00001e-06
 Reference value :  5.00003e-06
 Reference value :  5.00007e-06
 Reference value :  5.00010e-06
 Reference value :  5.00010e-06
 Reference value :  5.00011e-06
 Reference value :  5.00013e-06
 Reference value :  5.00016e-06
 Reference value :  5.00023e-06
 Reference value :  5.00036e-06
 Reference value :  5.00053e-06
 Reference value :  5.00087e-06
 Reference value :  5.00144e-06
 Reference value :  5.00221e-06
 Reference value :  5.00288e-06
 Reference value :  5.00356e-06
 Reference value :  5.00427e-06
 Reference value :  5.00524e-06
 Reference value :  5.00602e-06
 Reference value :  5.00684e-06
 Reference value :  5.00781e-06
 Reference value :  5.00872e-06
 Reference value :  5.00969e-06
 Reference value :  5.01066e-06
 Reference value :  5.01191e-06
 Reference value :  5.01360e-06
 Reference value :  5.01479e-06
 Reference value :  5.01618e-06
 Reference value :  5.01760e-06
 Reference value :  5.01924e-06
 Reference value :  5.02108e-06
 Reference value :  5.02255e-06
 Reference value :  5.02410e-06
 Reference value :  5.02555e-06
 Reference value :  5.02711e-06
 Reference value :  5.02884e-06
 Reference value :  5.03105e-06
 Reference value :  5.03339e-06
 Reference value :  5.03791e-06
 Reference value :  5.04424e-06
 Reference value :  5.05215e-06
 Reference value :  5.05962e-06
 Reference value :  5.06453e-06
 Reference value :  5.06911e-06
 Reference value :  5.07395e-06
 Reference value :  5.07881e-06
 Reference value :  5.08413e-06
 Reference value :  5.09223e-06
 Reference value :  5.10069e-06
 Reference value :  5.10717e-06
 Reference value :  5.11420e-06
 Reference value :  5.12282e-06
 Reference value :  5.13063e-06
 Reference value :  5.13794e-06
 Reference value :  5.14742e-06
 Reference value :  5.16246e-06
 Reference value :  5.18799e-06
 Reference value :  5.22482e-06
 Reference value :  5.25010e-06
 Reference value :  5.25011e-06
 Reference value :  5.25013e-06
 Reference value :  5.25017e-06
 Reference value :  5.25020e-06
 Reference value :  5.25020e-06
 Reference value :  5.25020e-06
 Reference value :  5.25021e-06
 Reference value :  5.25021e-06
 Reference value :  5.25022e-06
 Reference value :  5.25025e-06
 Reference value :  5.25030e-06
 Reference value :  5.25039e-06
 Reference value :  5.25059e-06
 Reference value :  5.25094e-06
 Reference value :  5.25136e-06
 Reference value :  5.25188e-06
 Reference value :  5.25249e-06
 Reference value :  5.25326e-06
 Reference value :  5.25413e-06
 Reference value :  5.25528e-06
 Reference value :  5.25622e-06
 Reference value :  5.25720e-06
 Reference value :  5.25828e-06
 Reference value :  5.25985e-06
 Reference value :  5.26143e-06
 Reference value :  5.26385e-06
 Reference value :  5.26699e-06
 Reference value :  5.27249e-06
 Reference value :  5.28350e-06
 Reference value :  5.30255e-06
 Reference value :  5.34010e-06
 Reference value :  5.40969e-06
 Reference value :  5.50000e-06
 Reference value :  5.50001e-06
 Reference value :  5.50003e-06
 Reference value :  5.50007e-06
 Reference value :  5.50010e-06
 Reference value :  5.50010e-06
 Reference value :  5.50011e-06
 Reference value :  5.50013e-06
 Reference value :  5.50016e-06
 Reference value :  5.50023e-06
 Reference value :  5.50036e-06
 Reference value :  5.50053e-06
 Reference value :  5.50087e-06
 Reference value :  5.50145e-06
 Reference value :  5.50221e-06
 Reference value :  5.50284e-06
 Reference value :  5.50350e-06
 Reference value :  5.50419e-06
 Reference value :  5.50515e-06
 Reference value :  5.50612e-06
 Reference value :  5.50705e-06
 Reference value :  5.50854e-06
 Reference value :  5.50990e-06
 Reference value :  5.51119e-06
 Reference value :  5.51257e-06
 Reference value :  5.51386e-06
 Reference value :  5.51535e-06
 Reference value :  5.51687e-06
 Reference value :  5.51858e-06
 Reference value :  5.52199e-06
 Reference value :  5.52881e-06
 Reference value :  5.54048e-06
 Reference value :  5.56381e-06
 Reference value :  5.60784e-06
 Reference value :  5.69591e-06
 Reference value :  5.75010e-06
 Reference value :  5.75011e-06
 Reference value :  5.75013e-06
 Reference value :  5.75017e-06
 Reference value :  5.75020e-06
 Reference value :  5.75020e-06
 Reference value :  5.75020e-06
 Reference value :  5.75021e-06
 Reference value :  5.75021e-06
 Reference value :  5.75022e-06
 Reference value :  5.75025e-06
 Reference value :  5.75030e-06
 Reference value :  5.75039e-06
 Reference value :  5.75059e-06
 Reference value :  5.75094e-06
 Reference value :  5.75136e-06
 Reference value :  5.75188e-06
 Reference value :  5.75249e-06
 Reference value :  5.75326e-06
 Reference value :  5.75413e-06
 Reference value :  5.75531e-06
 Reference value :  5.75623e-06
 Reference value :  5.75720e-06
 Reference value :  5.75823e-06
 Reference value :  5.75934e-06
 Reference value :  5.76057e-06
 Reference value :  5.76185e-06
 Reference value :  5.76325e-06
 Reference value :  5.76538e-06
 Reference value :  5.76770e-06
 Reference value :  5.77133e-06
 Reference value :  5.77705e-06
 Reference value :  5.78848e-06
 Reference value :  5.81136e-06
 Reference value :  5.85692e-06
 Reference value :  5.94804e-06
 Reference value :  6.00000e-06
 Reference value :  6.00001e-06
 Reference value :  6.00003e-06
 Reference value :  6.00007e-06
 Reference value :  6.00010e-06
 Reference value :  6.00010e-06
 Reference value :  6.00011e-06
 Reference value :  6.00013e-06
 Reference value :  6.00016e-06
 Reference value :  6.00023e-06
 Reference value :  6.00036e-06
 Reference value :  6.00053e-06
 Reference value :  6.00087e-06
 Reference value :  6.00144e-06
 Reference value :  6.00221e-06
 Reference value :  6.00288e-06
 Reference value :  6.00356e-06
 Reference value :  6.00427e-06
 Reference value :  6.00514e-06
 Reference value :  6.00590e-06
 Reference value :  6.00673e-06
 Reference value :  6.00781e-06
 Reference value :  6.00879e-06
 Reference value :  6.00970e-06
 Reference value :  6.01079e-06
 Reference value :  6.01200e-06
 Reference value :  6.01389e-06
 Reference value :  6.01525e-06
 Reference value :  6.01673e-06
 Reference value :  6.01812e-06
 Reference value :  6.01974e-06
 Reference value :  6.02117e-06
 Reference value :  6.02235e-06
 Reference value :  6.02360e-06
 Reference value :  6.02486e-06
 Reference value :  6.02617e-06
 Reference value :  6.02790e-06
 Reference value :  6.02953e-06
 Reference value :  6.03225e-06
 Reference value :  6.03484e-06
 Reference value :  6.04003e-06
 Reference value :  6.04563e-06
 Reference value :  6.05183e-06
 Reference value :  6.05802e-06
 Reference value :  6.06567e-06
 Reference value :  6.07374e-06
 Reference value :  6.08987e-06
 Reference value :  6.12213e-06
 Reference value :  6.17347e-06
 Reference value :  6.21444e-06
 Reference value :  6.25010e-06
 Reference value :  6.25011e-06
 Reference value :  6.25013e-06
 Reference value :  6.25017e-06
 Reference value :  6.25020e-06
 Reference value :  6.25020e-06
 Reference value :  6.25020e-06
 Reference value :  6.25021e-06
 Reference value :  6.25021e-06
 Reference value :  6.25022e-06
 Reference value :  6.25025e-06
 Reference value :  6.25029e-06
 Reference value :  6.25039e-06
 Reference value :  6.25058e-06
 Reference value :  6.25092e-06
 Reference value :  6.25135e-06
 Reference value :  6.25187e-06
 Reference value :  6.25248e-06
 Reference value :  6.25324e-06
 Reference value :  6.25411e-06
 Reference value :  6.25527e-06
 Reference value :  6.25615e-06
 Reference value :  6.25709e-06
 Reference value :  6.25814e-06
 Reference value :  6.25954e-06
 Reference value :  6.26099e-06
 Reference value :  6.26343e-06
 Reference value :  6.26625e-06
 Reference value :  6.27118e-06
 Reference value :  6.28104e-06
 Reference value :  6.29946e-06
 Reference value :  6.33528e-06
 Reference value :  6.40565e-06
 Reference value :  6.50000e-06
 Reference value :  6.50001e-06
 Reference value :  6.50003e-06
 Reference value :  6.50007e-06
 Reference value :  6.50010e-06
 Reference value :  6.50010e-06
 Reference value :  6.50011e-06
 Reference value :  6.50013e-06
 Reference value :  6.50016e-06
 Reference value :  6.50023e-06
 Reference value :  6.50036e-06
 Reference value :  6.50053e-06
 Reference value :  6.50087e-06
 Reference value :  6.50145e-06
 Reference value :  6.50221e-06
 Reference value :  6.50284e-06
 Reference value :  6.50350e-06
 Reference value :  6.50419e-06
 Reference value :  6.50515e-06
 Reference value :  6.50611e-06
 Reference value :  6.50705e-06
 Reference value :  6.50852e-06
 Reference value :  6.50989e-06
 Reference value :  6.51126e-06
 Reference value :  6.51281e-06
 Reference value :  6.51420e-06
 Reference value :  6.51572e-06
 Reference value :  6.51723e-06
 Reference value :  6.51901e-06
 Reference value :  6.52257e-06
 Reference value :  6.52843e-06
 Reference value :  6.54014e-06
 Reference value :  6.56225e-06
 Reference value :  6.60320e-06
 Reference value :  6.68511e-06
 Reference value :  6.75010e-06
 Reference value :  6.75011e-06
 Reference value :  6.75013e-06
 Reference value :  6.75017e-06
 Reference value :  6.75020e-06
 Reference value :  6.75020e-06
 Reference value :  6.75020e-06
 Reference value :  6.75021e-06
 Reference value :  6.75021e-06
 Reference value :  6.75022e-06
 Reference value :  6.75025e-06
 Reference value :  6.75030e-06
 Reference value :  6.75039e-06
 Reference value :  6.75059e-06
 Reference value :  6.75094e-06
 Reference value :  6.75136e-06
 Reference value :  6.75188e-06
 Reference value :  6.75249e-06
 Reference value :  6.75326e-06
 Reference value :  6.75413e-06
 Reference value :  6.75531e-06
 Reference value :  6.75623e-06
 Reference value :  6.75720e-06
 Reference value :  6.75823e-06
 Reference value :  6.75934e-06
 Reference value :  6.76058e-06
 Reference value :  6.76186e-06
 Reference value :  6.76326e-06
 Reference value :  6.76539e-06
 Reference value :  6.76771e-06
 Reference value :  6.77136e-06
 Reference value :  6.77712e-06
 Reference value :  6.78862e-06
 Reference value :  6.81162e-06
 Reference value :  6.85652e-06
 Reference value :  6.94632e-06
 Reference value :  7.00000e-06
 Reference value :  7.00001e-06
 Reference value :  7.00003e-06
 Reference value :  7.00007e-06
 Reference value :  7.00010e-06
 Reference value :  7.00010e-06
 Reference value :  7.00011e-06
 Reference value :  7.00013e-06
 Reference value :  7.00016e-06
 Reference value :  7.00023e-06
 Reference value :  7.00036e-06
 Reference value :  7.00053e-06
 Reference value :  7.00087e-06
 Reference value :  7.00144e-06
 Reference value :  7.00221e-06
 Reference value :  7.00288e-06
 Reference value :  7.00356e-06
 Reference value :  7.00427e-06
 Reference value :  7.00513e-06
 Reference value :  7.00590e-06
 Reference value :  7.00672e-06
 Reference value :  7.00780e-06
 Reference value :  7.00878e-06
 Reference value :  7.00974e-06
 Reference value :  7.01079e-06
 Reference value :  7.01204e-06
 Reference value :  7.01385e-06
 Reference value :  7.01516e-06
 Reference value :  7.01664e-06
 Reference value :  7.01808e-06
 Reference value :  7.01975e-06
 Reference value :  7.02134e-06
 Reference value :  7.02246e-06
 Reference value :  7.02360e-06
 Reference value :  7.02487e-06
 Reference value :  7.02615e-06
 Reference value :  7.02766e-06
 Reference value :  7.02911e-06
 Reference value :  7.03122e-06
 Reference value :  7.03353e-06
 Reference value :  7.03814e-06
 Reference value :  7.04308e-06
 Reference value :  7.04871e-06
 Reference value :  7.05563e-06
 Reference value :  7.06125e-06
 Reference value :  7.06767e-06
 Reference value :  7.07466e-06
 Reference value :  7.08110e-06
 Reference value :  7.09397e-06
 Reference value :  7.11123e-06
 Reference value :  7.12479e-06
 Reference value :  7.14312e-06
 Reference value :  7.17977e-06
 Reference value :  7.25010e-06
 Reference value :  7.25011e-06
 Reference value :  7.25013e-06
 Reference value :  7.25017e-06
 Reference value :  7.25020e-06
 Reference value :  7.25020e-06
 Reference value :  7.25020e-06
 Reference value :  7.25021e-06
 Reference value :  7.25021e-06
 Reference value :  7.25022e-06
 Reference value :  7.25025e-06
 Reference value :  7.25030e-06
 Reference value :  7.25039e-06
 Reference value :  7.25059e-06
 Reference value :  7.25094e-06
 Reference value :  7.25136e-06
 Reference value :  7.25188e-06
 Reference value :  7.25249e-06
 Reference value :  7.25326e-06
 Reference value :  7.25414e-06
 Reference value :  7.25532e-06
 Reference value :  7.25625e-06
 Reference value :  7.25722e-06
 Reference value :  7.25830e-06
 Reference value :  7.25986e-06
 Reference value :  7.26139e-06
 Reference value :  7.26384e-06
 Reference value :  7.26695e-06
 Reference value :  7.27254e-06
 Reference value :  7.28373e-06
 Reference value :  7.30280e-06
 Reference value :  7.34084e-06
 Reference value :  7.41054e-06
 Reference value :  7.50000e-06
 Reference value :  7.50001e-06
 Reference value :  7.50003e-06
 Reference value :  7.50007e-06
 Reference value :  7.50010e-06
 Reference value :  7.50010e-06
 Reference value :  7.50011e-06
 Reference value :  7.50013e-06
 Reference value :  7.50016e-06
 Reference value :  7.50023e-06
 Reference value :  7.50036e-06
 Reference value :  7.50053e-06
 Reference value :  7.50087e-06
 Reference value :  7.50150e-06
 Reference value :  7.50218e-06
 Reference value :  7.50280e-06
 Reference value :  7.50345e-06
 Reference value :  7.50413e-06
 Reference value :  7.50512e-06
 Reference value :  7.50601e-06
 Reference value :  7.50701e-06
 Reference value :  7.50826e-06
 Reference value :  7.50973e-06
 Reference value :  7.51114e-06
 Reference value :  7.51283e-06
 Reference value :  7.51438e-06
 Reference value :  7.51607e-06
 Reference value :  7.51780e-06
 Reference value :  7.51970e-06
 Reference value :  7.52348e-06
 Reference value :  7.52972e-06
 Reference value :  7.54039e-06
 Reference value :  7.56131e-06
 Reference value :  7.59969e-06
 Reference value :  7.67117e-06
 Reference value :  7.75010e-06
 Reference value :  7.75011e-06
 Reference value :  7.75013e-06
 Reference value :  7.75017e-06
 Reference value :  7.75020e-06
 Reference value :  7.75020e-06
 Reference value :  7.75020e-06
 Reference value :  7.75021e-06
 Reference value :  7.75021e-06
 Reference value :  7.75022e-06
 Reference value :  7.75025e-06
 Reference value :  7.75030e-06
 Reference value :  7.75039e-06
 Reference value :  7.75059e-06
 Reference value :  7.75094e-06
 Reference value :  7.75136e-06
 Reference value :  7.75188e-06
 Reference value :  7.75249e-06
 Reference value :  7.75326e-06
 Reference value :  7.75414e-06
 Reference value :  7.75531e-06
 Reference value :  7.75626e-06
 Reference value :  7.75725e-06
 Reference value :  7.75827e-06
 Reference value :  7.75940e-06
 Reference value :  7.76065e-06
 Reference value :  7.76305e-06
 Reference value :  7.76586e-06
 Reference value :  7.77063e-06
 Reference value :  7.77978e-06
 Reference value :  7.79799e-06
 Reference value :  7.83131e-06
 Reference value :  7.89780e-06
 Reference value :  8.00000e-06
 Reference value :  8.00001e-06
 Reference value :  8.00003e-06
 Reference value :  8.00007e-06
 Reference value :  8.00010e-06
 Reference value :  8.00010e-06
 Reference value :  8.00011e-06
 Reference value :  8.00013e-06
 Reference value :  8.00016e-06
 Reference value :  8.00023e-06
 Reference value :  8.00036e-06
 Reference value :  8.00053e-06
 Reference value :  8.00087e-06
 Reference value :  8.00150e-06
 Reference value :  8.00218e-06
 Reference value :  8.00280e-06
 Reference value :  8.00345e-06
 Reference value :  8.00414e-06
 Reference value :  8.00499e-06
 Reference value :  8.00588e-06
 Reference value :  8.00669e-06
 Reference value :  8.00773e-06
 Reference value :  8.00871e-06
 Reference value :  8.00974e-06
 Reference value :  8.01072e-06
 Reference value :  8.01204e-06
 Reference value :  8.01371e-06
 Reference value :  8.01602e-06
 Reference value :  8.01872e-06
 Reference value :  8.02109e-06
 Reference value :  8.02353e-06
 Reference value :  8.02726e-06
 Reference value :  8.03094e-06
 Reference value :  8.03735e-06
 Reference value :  8.04599e-06
 Reference value :  8.05942e-06
 Reference value :  8.08149e-06
 Reference value :  8.11889e-06
 Reference value :  8.18082e-06
 Reference value :  8.25010e-06
 Reference value :  8.25011e-06
 Reference value :  8.25013e-06
 Reference value :  8.25017e-06
 Reference value :  8.25020e-06
 Reference value :  8.25020e-06
 Reference value :  8.25020e-06
 Reference value :  8.25021e-06
 Reference value :  8.25021e-06
 Reference value :  8.25022e-06
 Reference value :  8.25025e-06
 Reference value :  8.25030e-06
 Reference value :  8.25039e-06
 Reference value :  8.25059e-06
 Reference value :  8.25098e-06
 Reference value :  8.25139e-06
 Reference value :  8.25189e-06
 Reference value :  8.25250e-06
 Reference value :  8.25330e-06
 Reference value :  8.25418e-06
 Reference value :  8.25526e-06
 Reference value :  8.25645e-06
 Reference value :  8.25784e-06
 Reference value :  8.25942e-06
 Reference value :  8.26126e-06
 Reference value :  8.26401e-06
 Reference value :  8.26675e-06
 Reference value :  8.27191e-06
 Reference value :  8.28224e-06
 Reference value :  8.29901e-06
 Reference value :  8.33245e-06
 Reference value :  8.39193e-06
 Reference value :  8.50000e-06
 Reference value :  8.50001e-06
 Reference value :  8.50003e-06
 Reference value :  8.50007e-06
 Reference value :  8.50010e-06
 Reference value :  8.50010e-06
 Reference value :  8.50011e-06
 Reference value :  8.50013e-06
 Reference value :  8.50016e-06
 Reference value :  8.50023e-06
 Reference value :  8.50036e-06
 Reference value :  8.50063e-06
 Reference value :  8.50109e-06
 Reference value :  8.50179e-06
 Reference value :  8.50270e-06
 Reference value :  8.50336e-06
 Reference value :  8.50415e-06
 Reference value :  8.50499e-06
 Reference value :  8.50589e-06
 Reference value :  8.50698e-06
 Reference value :  8.50836e-06
 Reference value :  8.51007e-06
 Reference value :  8.51231e-06
 Reference value :  8.51410e-06
 Reference value :  8.51597e-06
 Reference value :  8.51836e-06
 Reference value :  8.52086e-06
 Reference value :  8.52366e-06
 Reference value :  8.52796e-06
 Reference value :  8.53312e-06
 Reference value :  8.53684e-06
 Reference value :  8.53990e-06
 Reference value :  8.54278e-06
 Reference value :  8.54557e-06
 Reference value :  8.54781e-06
 Reference value :  8.55004e-06
 Reference value :  8.55180e-06
 Reference value :  8.55361e-06
 Reference value :  8.55638e-06
 Reference value :  8.55940e-06
 Reference value :  8.56226e-06
 Reference value :  8.56410e-06
 Reference value :  8.56590e-06
 Reference value :  8.56729e-06
 Reference value :  8.56893e-06
 Reference value :  8.57140e-06
 Reference value :  8.57468e-06
 Reference value :  8.58043e-06
 Reference value :  8.58565e-06
 Reference value :  8.59330e-06
 Reference value :  8.60246e-06
 Reference value :  8.61644e-06
 Reference value :  8.63432e-06
 Reference value :  8.65449e-06
 Reference value :  8.67547e-06
 Reference value :  8.70550e-06
 Reference value :  8.75010e-06
 Reference value :  8.75011e-06
 Reference value :  8.75013e-06
 Reference value :  8.75017e-06
 Reference value :  8.75020e-06
 Reference value :  8.75020e-06
 Reference value :  8.75020e-06
 Reference value :  8.75021e-06
 Reference value :  8.75021e-06
 Reference value :  8.75022e-06
 Reference value :  8.75025e-06
 Reference value :  8.75029e-06
 Reference value :  8.75039e-06
 Reference value :  8.75058e-06
 Reference value :  8.75096e-06
 Reference value :  8.75137e-06
 Reference value :  8.75190e-06
 Reference value :  8.75251e-06
 Reference value :  8.75330e-06
 Reference value :  8.75418e-06
 Reference value :  8.75539e-06
 Reference value :  8.75635e-06
 Reference value :  8.75735e-06
 Reference value :  8.75848e-06
 Reference value :  8.76002e-06
 Reference value :  8.76168e-06
 Reference value :  8.76404e-06
 Reference value :  8.76749e-06
 Reference value :  8.77359e-06
 Reference value :  8.78577e-06
 Reference value :  8.80589e-06
 Reference value :  8.84571e-06
 Reference value :  8.90702e-06
 Reference value :  8.97299e-06
 Reference value :  9.00000e-06
 Reference value :  9.00001e-06
 Reference value :  9.00003e-06
 Reference value :  9.00007e-06
 Reference value :  9.00010e-06
 Reference value :  9.00010e-06
 Reference value :  9.00011e-06
 Reference value :  9.00013e-06
 Reference value :  9.00016e-06
 Reference value :  9.00023e-06
 Reference value :  9.00036e-06
 Reference value :  9.00054e-06
 Reference value :  9.00089e-06
 Reference value :  9.00151e-06
 Reference value :  9.00219e-06
 Reference value :  9.00282e-06
 Reference value :  9.00350e-06
 Reference value :  9.00421e-06
 Reference value :  9.00518e-06
 Reference value :  9.00612e-06
 Reference value :  9.00710e-06
 Reference value :  9.00844e-06
 Reference value :  9.00983e-06
 Reference value :  9.01174e-06
 Reference value :  9.01406e-06
 Reference value :  9.01591e-06
 Reference value :  9.01789e-06
 Reference value :  9.01995e-06
 Reference value :  9.02226e-06
 Reference value :  9.02485e-06
 Reference value :  9.02756e-06
 Reference value :  9.03257e-06
 Reference value :  9.03790e-06
 Reference value :  9.04414e-06
 Reference value :  9.05106e-06
 Reference value :  9.05575e-06
 Reference value :  9.06094e-06
 Reference value :  9.06616e-06
 Reference value :  9.07304e-06
 Reference value :  9.07933e-06
 Reference value :  9.08660e-06
 Reference value :  9.09503e-06
 Reference value :  9.10962e-06
 Reference value :  9.12840e-06
 Reference value :  9.15752e-06
 Reference value :  9.20872e-06
 Reference value :  9.25010e-06
 Reference value :  9.25011e-06
 Reference value :  9.25013e-06
 Reference value :  9.25017e-06
 Reference value :  9.25020e-06
 Reference value :  9.25020e-06
 Reference value :  9.25020e-06
 Reference value :  9.25021e-06
 Reference value :  9.25021e-06
 Reference value :  9.25022e-06
 Reference value :  9.25025e-06
 Reference value :  9.25029e-06
 Reference value :  9.25039e-06
 Reference value :  9.25058e-06
 Reference value :  9.25096e-06
 Reference value :  9.25137e-06
 Reference value :  9.25190e-06
 Reference value :  9.25251e-06
 Reference value :  9.25329e-06
 Reference value :  9.25420e-06
 Reference value :  9.25538e-06
 Reference value :  9.25632e-06
 Reference value :  9.25731e-06
 Reference value :  9.25833e-06
 Reference value :  9.25943e-06
 Reference value :  9.26066e-06
 Reference value :  9.26199e-06
 Reference value :  9.26339e-06
 Reference value :  9.26579e-06
 Reference value :  9.26801e-06
 Reference value :  9.27171e-06
 Reference value :  9.27713e-06
 Reference value :  9.28795e-06
 Reference value :  9.30961e-06
 Reference value :  9.35293e-06
 Reference value :  9.43956e-06
 Reference value :  9.50000e-06
 Reference value :  9.50001e-06
 Reference value :  9.50003e-06
 Reference value :  9.50007e-06
 Reference value :  9.50010e-06
 Reference value :  9.50010e-06
 Reference value :  9.50011e-06
 Reference value :  9.50013e-06
 Reference value :  9.50016e-06
 Reference value :  9.50023e-06
 Reference value :  9.50036e-06
 Reference value :  9.50054e-06
 Reference value :  9.50089e-06
 Reference value :  9.50150e-06
 Reference value :  9.50219e-06
 Reference value :  9.50282e-06
 Reference value :  9.50346e-06
 Reference value :  9.50415e-06
 Reference value :  9.50499e-06
 Reference value :  9.50589e-06
 Reference value :  9.50677e-06
 Reference value :  9.50767e-06
 Reference value :  9.50867e-06
 Reference value :  9.50970e-06
 Reference value :  9.51064e-06
 Reference value :  9.51209e-06
 Reference value :  9.51361e-06
 Reference value :  9.51595e-06
 Reference value :  9.51768e-06
 Reference value :  9.51951e-06
 Reference value :  9.52120e-06
 Reference value :  9.52267e-06
 Reference value :  9.52413e-06
 Reference value :  9.52573e-06
 Reference value :  9.52718e-06
 Reference value :  9.52899e-06
 Reference value :  9.53113e-06
 Reference value :  9.53350e-06
 Reference value :  9.53780e-06
 Reference value :  9.54388e-06
 Reference value :  9.55438e-06
 Reference value :  9.57246e-06
 Reference value :  9.60191e-06
 Reference value :  9.65412e-06
 Reference value :  9.69814e-06
 Reference value :  9.73103e-06
 Reference value :  9.75010e-06
 Reference value :  9.75011e-06
 Reference value :  9.75013e-06
 Reference value :  9.75017e-06
 Reference value :  9.75020e-06
 Reference value :  9.75020e-06
 Reference value :  9.75020e-06
 Reference value :  9.75021e-06
 Reference value :  9.75021e-06
 Reference value :  9.75022e-06
 Reference value :  9.75025e-06
 Reference value :  9.75029e-06
 Reference value :  9.75039e-06
 Reference value :  9.75058e-06
 Reference value :  9.75092e-06
 Reference value :  9.75135e-06
 Reference value :  9.75187e-06
 Reference value :  9.75248e-06
 Reference value :  9.75324e-06
 Reference value :  9.75411e-06
 Reference value :  9.75531e-06
 Reference value :  9.75620e-06
 Reference value :  9.75714e-06
 Reference value :  9.75820e-06
 Reference value :  9.75961e-06
 Reference value :  9.76106e-06
 Reference value :  9.76352e-06
 Reference value :  9.76641e-06
 Reference value :  9.77150e-06
 Reference value :  9.78166e-06
 Reference value :  9.80023e-06
 Reference value :  9.83647e-06
 Reference value :  9.90769e-06
 Reference value :  9.98254e-06
 Reference value :  1.00000e-05
 Reference value :  1.00000e-05
 Reference value :  1.00000e-05
 Reference value :  1.00001e-05
 Reference value :  1.00001e-05
 Reference value :  1.00001e-05
 Reference value :  1.00001e-05
 Reference value :  1.00001e-05
 Reference value :  1.00002e-05
 Reference value :  1.00002e-05
 Reference value :  1.00004e-05
 Reference value :  1.00005e-05
 Reference value :  1.00009e-05
 Reference value :  1.00014e-05
 Reference value :  1.00022e-05
 Reference value :  1.00029e-05
 Reference value :  1.00036e-05
 Reference value :  1.00043e-05
 Reference value :  1.00052e-05
 Reference value :  1.00062e-05
 Reference value :  1.00072e-05
 Reference value :  1.00086e-05
 Reference value :  1.00100e-05
 Reference value :  1.00113e-05
 Reference value :  1.00127e-05
 Reference value :  1.00142e-05
 Reference value :  1.00159e-05
 Reference value :  1.00175e-05
 Reference value :  1.00195e-05
 Reference value :  1.00217e-05
 Reference value :  1.00255e-05
 Reference value :  1.00312e-05
 Reference value :  1.00411e-05
 Reference value :  1.00595e-05
 Reference value :  1.00917e-05
 Reference value :  1.01527e-05
 Reference value :  1.02501e-05
 Reference value :  1.02501e-05
 Reference value :  1.02501e-05
 Reference value :  1.02502e-05
 Reference value :  1.02502e-05
 Reference value :  1.02502e-05
 Reference value :  1.02502e-05
 Reference value :  1.02502e-05
 Reference value :  1.02502e-05
 Reference value :  1.02502e-05
 Reference value :  1.02502e-05
 Reference value :  1.02503e-05
 Reference value :  1.02504e-05
 Reference value :  1.02506e-05
 Reference value :  1.02509e-05
 Reference value :  1.02513e-05
 Reference value :  1.02519e-05
 Reference value :  1.02525e-05
 Reference value :  1.02532e-05
 Reference value :  1.02541e-05
 Reference value :  1.02553e-05
 Reference value :  1.02562e-05
 Reference value :  1.02571e-05
 Reference value :  1.02582e-05
 Reference value :  1.02593e-05
 Reference value :  1.02605e-05
 Reference value :  1.02630e-05
 Reference value :  1.02656e-05
 Reference value :  1.02702e-05
 Reference value :  1.02786e-05
 Reference value :  1.02953e-05
 Reference value :  1.03286e-05
 Reference value :  1.03935e-05
 Reference value :  1.05000e-05
 Reference value :  1.05000e-05
 Reference value :  1.05000e-05
 Reference value :  1.05001e-05
 Reference value :  1.05001e-05
 Reference value :  1.05001e-05
 Reference value :  1.05001e-05
 Reference value :  1.05001e-05
 Reference value :  1.05002e-05
 Reference value :  1.05002e-05
 Reference value :  1.05004e-05
 Reference value :  1.05005e-05
 Reference value :  1.05009e-05
 Reference value :  1.05014e-05
 Reference value :  1.05022e-05
 Reference value :  1.05029e-05
 Reference value :  1.05036e-05
 Reference value :  1.05043e-05
 Reference value :  1.05053e-05
 Reference value :  1.05060e-05
 Reference value :  1.05069e-05
 Reference value :  1.05079e-05
 Reference value :  1.05089e-05
 Reference value :  1.05099e-05
 Reference value :  1.05110e-05
 Reference value :  1.05124e-05
 Reference value :  1.05140e-05
 Reference value :  1.05163e-05
 Reference value :  1.05185e-05
 Reference value :  1.05205e-05
 Reference value :  1.05221e-05
 Reference value :  1.05237e-05
 Reference value :  1.05253e-05
 Reference value :  1.05270e-05
 Reference value :  1.05289e-05
 Reference value :  1.05308e-05
 Reference value :  1.05335e-05
 Reference value :  1.05379e-05
 Reference value :  1.05455e-05
 Reference value :  1.05601e-05
 Reference value :  1.05726e-05
 Reference value :  1.05846e-05
 Reference value :  1.05928e-05
 Reference value :  1.05994e-05
 Reference value :  1.06064e-05
 Reference value :  1.06134e-05
 Reference value :  1.06211e-05
 Reference value :  1.06284e-05
 Reference value :  1.06372e-05
 Reference value :  1.06540e-05
 Reference value :  1.06724e-05
 Reference value :  1.07048e-05
 Reference value :  1.07501e-05
 Reference value :  1.07501e-05
 Reference value :  1.07501e-05
 Reference value :  1.07502e-05
 Reference value :  1.07502e-05
 Reference value :  1.07502e-05
 Reference value :  1.07502e-05
 Reference value :  1.07502e-05
 Reference value :  1.07502e-05
 Reference value :  1.07502e-05
 Reference value :  1.07502e-05
 Reference value :  1.07503e-05
 Reference value :  1.07504e-05
 Reference value :  1.07506e-05
 Reference value :  1.07509e-05
 Reference value :  1.07513e-05
 Reference value :  1.07519e-05
 Reference value :  1.07525e-05
 Reference value :  1.07532e-05
 Reference value :  1.07541e-05
 Reference value :  1.07552e-05
 Reference value :  1.07562e-05
 Reference value :  1.07571e-05
 Reference value :  1.07582e-05
 Reference value :  1.07598e-05
 Reference value :  1.07613e-05
 Reference value :  1.07638e-05
 Reference value :  1.07668e-05
 Reference value :  1.07721e-05
 Reference value :  1.07828e-05
 Reference value :  1.08016e-05
 Reference value :  1.08389e-05
 Reference value :  1.09096e-05
 Reference value :  1.09995e-05
 Reference value :  1.10000e-05
 Reference value :  1.10000e-05
 Reference value :  1.10000e-05
 Reference value :  1.10000e-05
 Reference value :  1.10001e-05
 Reference value :  1.10001e-05
 Reference value :  1.10001e-05
 Reference value :  1.10001e-05
 Reference value :  1.10002e-05
 Reference value :  1.10003e-05
 Reference value :  1.10004e-05
 Reference value :  1.10006e-05
 Reference value :  1.10011e-05
 Reference value :  1.10017e-05
 Reference value :  1.10024e-05
 Reference value :  1.10030e-05
 Reference value :  1.10037e-05
 Reference value :  1.10044e-05
 Reference value :  1.10055e-05
 Reference value :  1.10064e-05
 Reference value :  1.10075e-05
 Reference value :  1.10090e-05
 Reference value :  1.10106e-05
 Reference value :  1.10118e-05
 Reference value :  1.10132e-05
 Reference value :  1.10145e-05
 Reference value :  1.10161e-05
 Reference value :  1.10178e-05
 Reference value :  1.10196e-05
 Reference value :  1.10231e-05
 Reference value :  1.10303e-05
 Reference value :  1.10447e-05
 Reference value :  1.10734e-05
 Reference value :  1.11307e-05
 Reference value :  1.12455e-05
 Reference value :  1.12501e-05
 Reference value :  1.12501e-05
 Reference value :  1.12501e-05
 Reference value :  1.12502e-05
 Reference value :  1.12502e-05
 Reference value :  1.12502e-05
 Reference value :  1.12502e-05
 Reference value :  1.12502e-05
 Reference value :  1.12502e-05
 Reference value :  1.12502e-05
 Reference value :  1.12502e-05
 Reference value :  1.12503e-05
 Reference value :  1.12504e-05
 Reference value :  1.12506e-05
 Reference value :  1.12509e-05
 Reference value :  1.12514e-05
 Reference value :  1.12519e-05
 Reference value :  1.12525e-05
 Reference value :  1.12533e-05
 Reference value :  1.12541e-05
 Reference value :  1.12553e-05
 Reference value :  1.12562e-05
 Reference value :  1.12572e-05
 Reference value :  1.12582e-05
 Reference value :  1.12593e-05
 Reference value :  1.12606e-05
 Reference value :  1.12618e-05
 Reference value :  1.12632e-05
 Reference value :  1.12654e-05
 Reference value :  1.12677e-05
 Reference value :  1.12713e-05
 Reference value :  1.12770e-05
 Reference value :  1.12883e-05
 Reference value :  1.13110e-05
 Reference value :  1.13563e-05
 Reference value :  1.14469e-05
 Reference value :  1.15000e-05
 Reference value :  1.15000e-05
 Reference value :  1.15000e-05
 Reference value :  1.15001e-05
 Reference value :  1.15001e-05
 Reference value :  1.15001e-05
 Reference value :  1.15001e-05
 Reference value :  1.15001e-05
 Reference value :  1.15002e-05
 Reference value :  1.15002e-05
 Reference value :  1.15004e-05
 Reference value :  1.15005e-05
 Reference value :  1.15009e-05
 Reference value :  1.15014e-05
 Reference value :  1.15022e-05
 Reference value :  1.15029e-05
 Reference value :  1.15036e-05
 Reference value :  1.15043e-05
 Reference value :  1.15051e-05
 Reference value :  1.15059e-05
 Reference value :  1.15067e-05
 Reference value :  1.15078e-05
 Reference value :  1.15088e-05
 Reference value :  1.15097e-05
 Reference value :  1.15108e-05
 Reference value :  1.15121e-05
 Reference value :  1.15137e-05
 Reference value :  1.15152e-05
 Reference value :  1.15169e-05
 Reference value :  1.15185e-05
 Reference value :  1.15202e-05
 Reference value :  1.15215e-05
 Reference value :  1.15227e-05
 Reference value :  1.15241e-05
 Reference value :  1.15256e-05
 Reference value :  1.15270e-05
 Reference value :  1.15287e-05
 Reference value :  1.15308e-05
 Reference value :  1.15332e-05
 Reference value :  1.15375e-05
 Reference value :  1.15439e-05
 Reference value :  1.15549e-05
 Reference value :  1.15657e-05
 Reference value :  1.15788e-05
 Reference value :  1.15921e-05
 Reference value :  1.16011e-05
 Reference value :  1.16097e-05
 Reference value :  1.16213e-05
 Reference value :  1.16325e-05
 Reference value :  1.16483e-05
 Reference value :  1.16666e-05
 Reference value :  1.16895e-05
 Reference value :  1.17188e-05
 Reference value :  1.17501e-05
 Reference value :  1.17501e-05
 Reference value :  1.17501e-05
 Reference value :  1.17502e-05
 Reference value :  1.17502e-05
 Reference value :  1.17502e-05
 Reference value :  1.17502e-05
 Reference value :  1.17502e-05
 Reference value :  1.17502e-05
 Reference value :  1.17502e-05
 Reference value :  1.17502e-05
 Reference value :  1.17503e-05
 Reference value :  1.17504e-05
 Reference value :  1.17506e-05
 Reference value :  1.17509e-05
 Reference value :  1.17514e-05
 Reference value :  1.17519e-05
 Reference value :  1.17525e-05
 Reference value :  1.17533e-05
 Reference value :  1.17541e-05
 Reference value :  1.17553e-05
 Reference value :  1.17562e-05
 Reference value :  1.17572e-05
 Reference value :  1.17583e-05
 Reference value :  1.17598e-05
 Reference value :  1.17613e-05
 Reference value :  1.17638e-05
 Reference value :  1.17668e-05
 Reference value :  1.17723e-05
 Reference value :  1.17834e-05
 Reference value :  1.18023e-05
 Reference value :  1.18402e-05
 Reference value :  1.19103e-05
 Reference value :  1.20000e-05
 Reference value :  1.20000e-05
 Reference value :  1.20000e-05
 Reference value :  1.20001e-05
 Reference value :  1.20001e-05
 Reference value :  1.20001e-05
 Reference value :  1.20001e-05
 Reference value :  1.20001e-05
 Reference value :  1.20002e-05
 Reference value :  1.20002e-05
 Reference value :  1.20004e-05
 Reference value :  1.20005e-05
 Reference value :  1.20009e-05
 Reference value :  1.20014e-05
 Reference value :  1.20022e-05
 Reference value :  1.20029e-05
 Reference value :  1.20036e-05
 Reference value :  1.20043e-05
 Reference value :  1.20052e-05
 Reference value :  1.20062e-05
 Reference value :  1.20072e-05
 Reference value :  1.20086e-05
 Reference value :  1.20100e-05
 Reference value :  1.20113e-05
 Reference value :  1.20126e-05
 Reference value :  1.20142e-05
 Reference value :  1.20158e-05
 Reference value :  1.20176e-05
 Reference value :  1.20196e-05
 Reference value :  1.20235e-05
 Reference value :  1.20295e-05
 Reference value :  1.20414e-05
 Reference value :  1.20639e-05
 Reference value :  1.21043e-05
 Reference value :  1.21836e-05
 Reference value :  1.22501e-05
 Reference value :  1.22501e-05
 Reference value :  1.22501e-05
 Reference value :  1.22502e-05
 Reference value :  1.22502e-05
 Reference value :  1.22502e-05
 Reference value :  1.22502e-05
 Reference value :  1.22502e-05
 Reference value :  1.22502e-05
 Reference value :  1.22502e-05
 Reference value :  1.22502e-05
 Reference value :  1.22503e-05
 Reference value :  1.22504e-05
 Reference value :  1.22506e-05
 Reference value :  1.22509e-05
 Reference value :  1.22514e-05
 Reference value :  1.22519e-05
 Reference value :  1.22525e-05
 Reference value :  1.22533e-05
 Reference value :  1.22541e-05
 Reference value :  1.22553e-05
 Reference value :  1.22562e-05
 Reference value :  1.22572e-05
 Reference value :  1.22582e-05
 Reference value :  1.22593e-05
 Reference value :  1.22606e-05
 Reference value :  1.22630e-05
 Reference value :  1.22657e-05
 Reference value :  1.22703e-05
 Reference value :  1.22788e-05
 Reference value :  1.22957e-05
 Reference value :  1.23288e-05
 Reference value :  1.23948e-05
 Reference value :  1.25000e-05
 Reference value :  1.25000e-05
 Reference value :  1.25000e-05
 Reference value :  1.25001e-05
 Reference value :  1.25001e-05
 Reference value :  1.25001e-05
 Reference value :  1.25001e-05
 Reference value :  1.25001e-05
 Reference value :  1.25002e-05
 Reference value :  1.25002e-05
 Reference value :  1.25004e-05
 Reference value :  1.25005e-05
 Reference value :  1.25009e-05
 Reference value :  1.25014e-05
 Reference value :  1.25022e-05
 Reference value :  1.25029e-05
 Reference value :  1.25036e-05
 Reference value :  1.25043e-05
 Reference value :  1.25052e-05
 Reference value :  1.25060e-05
 Reference value :  1.25069e-05
 Reference value :  1.25078e-05
 Reference value :  1.25089e-05
 Reference value :  1.25099e-05
 Reference value :  1.25110e-05
 Reference value :  1.25123e-05
 Reference value :  1.25141e-05
 Reference value :  1.25167e-05
 Reference value :  1.25187e-05
 Reference value :  1.25208e-05
 Reference value :  1.25223e-05
 Reference value :  1.25238e-05
 Reference value :  1.25252e-05
 Reference value :  1.25268e-05
 Reference value :  1.25284e-05
 Reference value :  1.25306e-05
 Reference value :  1.25328e-05
 Reference value :  1.25372e-05
 Reference value :  1.25413e-05
 Reference value :  1.25464e-05
 Reference value :  1.25517e-05
 Reference value :  1.25561e-05
 Reference value :  1.25598e-05
 Reference value :  1.25639e-05
 Reference value :  1.25689e-05
 Reference value :  1.25757e-05
 Reference value :  1.25818e-05
 Reference value :  1.25885e-05
 Reference value :  1.25956e-05
 Reference value :  1.26098e-05
 Reference value :  1.26329e-05
 Reference value :  1.26654e-05
 Reference value :  1.27174e-05
 Reference value :  1.27501e-05
 Reference value :  1.27501e-05
 Reference value :  1.27501e-05
 Reference value :  1.27502e-05
 Reference value :  1.27502e-05
 Reference value :  1.27502e-05
 Reference value :  1.27502e-05
 Reference value :  1.27502e-05
 Reference value :  1.27502e-05
 Reference value :  1.27502e-05
 Reference value :  1.27502e-05
 Reference value :  1.27503e-05
 Reference value :  1.27504e-05
 Reference value :  1.27506e-05
 Reference value :  1.27509e-05
 Reference value :  1.27514e-05
 Reference value :  1.27519e-05
 Reference value :  1.27525e-05
 Reference value :  1.27533e-05
 Reference value :  1.27541e-05
 Reference value :  1.27553e-05
 Reference value :  1.27562e-05
 Reference value :  1.27572e-05
 Reference value :  1.27583e-05
 Reference value :  1.27599e-05
 Reference value :  1.27615e-05
 Reference value :  1.27639e-05
 Reference value :  1.27670e-05
 Reference value :  1.27725e-05
 Reference value :  1.27834e-05
 Reference value :  1.28023e-05
 Reference value :  1.28395e-05
 Reference value :  1.29116e-05
 Reference value :  1.30000e-05
 Reference value :  1.30000e-05
 Reference value :  1.30000e-05
 Reference value :  1.30001e-05
 Reference value :  1.30001e-05
 Reference value :  1.30001e-05
 Reference value :  1.30001e-05
 Reference value :  1.30001e-05
 Reference value :  1.30002e-05
 Reference value :  1.30002e-05
 Reference value :  1.30004e-05
 Reference value :  1.30005e-05
 Reference value :  1.30009e-05
 Reference value :  1.30014e-05
 Reference value :  1.30022e-05
 Reference value :  1.30028e-05
 Reference value :  1.30035e-05
 Reference value :  1.30042e-05
 Reference value :  1.30051e-05
 Reference value :  1.30061e-05
 Reference value :  1.30071e-05
 Reference value :  1.30085e-05
 Reference value :  1.30099e-05
 Reference value :  1.30112e-05
 Reference value :  1.30126e-05
 Reference value :  1.30139e-05
 Reference value :  1.30155e-05
 Reference value :  1.30171e-05
 Reference value :  1.30188e-05
 Reference value :  1.30223e-05
 Reference value :  1.30293e-05
 Reference value :  1.30411e-05
 Reference value :  1.30647e-05
 Reference value :  1.31091e-05
 Reference value :  1.31978e-05
 Reference value :  1.32501e-05
 Reference value :  1.32501e-05
 Reference value :  1.32501e-05
 Reference value :  1.32502e-05
 Reference value :  1.32502e-05
 Reference value :  1.32502e-05
 Reference value :  1.32502e-05
 Reference value :  1.32502e-05
 Reference value :  1.32502e-05
 Reference value :  1.32502e-05
 Reference value :  1.32502e-05
 Reference value :  1.32503e-05
 Reference value :  1.32504e-05
 Reference value :  1.32506e-05
 Reference value :  1.32509e-05
 Reference value :  1.32514e-05
 Reference value :  1.32519e-05
 Reference value :  1.32525e-05
 Reference value :  1.32533e-05
 Reference value :  1.32541e-05
 Reference value :  1.32553e-05
 Reference value :  1.32562e-05
 Reference value :  1.32572e-05
 Reference value :  1.32582e-05
 Reference value :  1.32593e-05
 Reference value :  1.32606e-05
 Reference value :  1.32618e-05
 Reference value :  1.32632e-05
 Reference value :  1.32654e-05
 Reference value :  1.32677e-05
 Reference value :  1.32713e-05
 Reference value :  1.32770e-05
 Reference value :  1.32884e-05
 Reference value :  1.33112e-05
 Reference value :  1.33564e-05
 Reference value :  1.34469e-05
 Reference value :  1.35000e-05
 Reference value :  1.35000e-05
 Reference value :  1.35000e-05
 Reference value :  1.35001e-05
 Reference value :  1.35001e-05
 Reference value :  1.35001e-05
 Reference value :  1.35001e-05
 Reference value :  1.35001e-05
 Reference value :  1.35002e-05
 Reference value :  1.35002e-05
 Reference value :  1.35004e-05
 Reference value :  1.35005e-05
 Reference value :  1.35009e-05
 Reference value :  1.35014e-05
 Reference value :  1.35022e-05
 Reference value :  1.35029e-05
 Reference value :  1.35036e-05
 Reference value :  1.35043e-05
 Reference value :  1.35052e-05
 Reference value :  1.35060e-05
 Reference value :  1.35068e-05
 Reference value :  1.35078e-05
 Reference value :  1.35087e-05
 Reference value :  1.35097e-05
 Reference value :  1.35107e-05
 Reference value :  1.35119e-05
 Reference value :  1.35136e-05
 Reference value :  1.35148e-05
 Reference value :  1.35162e-05
 Reference value :  1.35176e-05
 Reference value :  1.35192e-05
 Reference value :  1.35211e-05
 Reference value :  1.35225e-05
 Reference value :  1.35241e-05
 Reference value :  1.35256e-05
 Reference value :  1.35271e-05
 Reference value :  1.35288e-05
 Reference value :  1.35310e-05
 Reference value :  1.35334e-05
 Reference value :  1.35378e-05
 Reference value :  1.35441e-05
 Reference value :  1.35549e-05
 Reference value :  1.35648e-05
 Reference value :  1.35753e-05
 Reference value :  1.35871e-05
 Reference value :  1.35997e-05
 Reference value :  1.36201e-05
 Reference value :  1.36452e-05
 Reference value :  1.36657e-05
 Reference value :  1.36802e-05
 Reference value :  1.37000e-05
 Reference value :  1.37378e-05
 Reference value :  1.37501e-05
 Reference value :  1.37501e-05
 Reference value :  1.37501e-05
 Reference value :  1.37502e-05
 Reference value :  1.37502e-05
 Reference value :  1.37502e-05
 Reference value :  1.37502e-05
 Reference value :  1.37502e-05
 Reference value :  1.37502e-05
 Reference value :  1.37502e-05
 Reference value :  1.37502e-05
 Reference value :  1.37503e-05
 Reference value :  1.37504e-05
 Reference value :  1.37506e-05
 Reference value :  1.37509e-05
 Reference value :  1.37513e-05
 Reference value :  1.37519e-05
 Reference value :  1.37525e-05
 Reference value :  1.37532e-05
 Reference value :  1.37541e-05
 Reference value :  1.37553e-05
 Reference value :  1.37562e-05
 Reference value :  1.37571e-05
 Reference value :  1.37581e-05
 Reference value :  1.37596e-05
 Reference value :  1.37610e-05
 Reference value :  1.37635e-05
 Reference value :  1.37663e-05
 Reference value :  1.37712e-05
 Reference value :  1.37812e-05
 Reference value :  1.37995e-05
 Reference value :  1.38353e-05
 Reference value :  1.39060e-05
 Reference value :  1.40000e-05
 Reference value :  1.40000e-05
 Reference value :  1.40000e-05
 Reference value :  1.40001e-05
 Reference value :  1.40001e-05
 Reference value :  1.40001e-05
 Reference value :  1.40001e-05
 Reference value :  1.40001e-05
 Reference value :  1.40002e-05
 Reference value :  1.40002e-05
 Reference value :  1.40004e-05
 Reference value :  1.40005e-05
 Reference value :  1.40009e-05
 Reference value :  1.40014e-05
 Reference value :  1.40022e-05
 Reference value :  1.40028e-05
 Reference value :  1.40035e-05
 Reference value :  1.40042e-05
 Reference value :  1.40052e-05
 Reference value :  1.40061e-05
 Reference value :  1.40071e-05
 Reference value :  1.40085e-05
 Reference value :  1.40099e-05
 Reference value :  1.40112e-05
 Reference value :  1.40126e-05
 Reference value :  1.40139e-05
 Reference value :  1.40154e-05
 Reference value :  1.40169e-05
 Reference value :  1.40186e-05
 Reference value :  1.40220e-05
 Reference value :  1.40288e-05
 Reference value :  1.40405e-05
 Reference value :  1.40638e-05
 Reference value :  1.41077e-05
 Reference value :  1.41957e-05
 Reference value :  1.42501e-05
 Reference value :  1.42501e-05
 Reference value :  1.42501e-05
 Reference value :  1.42502e-05
 Reference value :  1.42502e-05
 Reference value :  1.42502e-05
 Reference value :  1.42502e-05
 Reference value :  1.42502e-05
 Reference value :  1.42502e-05
 Reference value :  1.42502e-05
 Reference value :  1.42502e-05
 Reference value :  1.42503e-05
 Reference value :  1.42504e-05
 Reference value :  1.42506e-05
 Reference value :  1.42509e-05
 Reference value :  1.42514e-05
 Reference value :  1.42519e-05
 Reference value :  1.42525e-05
 Reference value :  1.42533e-05
 Reference value :  1.42541e-05
 Reference value :  1.42553e-05
 Reference value :  1.42562e-05
 Reference value :  1.42572e-05
 Reference value :  1.42582e-05
 Reference value :  1.42593e-05
 Reference value :  1.42606e-05
 Reference value :  1.42619e-05
 Reference value :  1.42633e-05
 Reference value :  1.42654e-05
 Reference value :  1.42677e-05
 Reference value :  1.42713e-05
 Reference value :  1.42770e-05
 Reference value :  1.42885e-05
 Reference value :  1.43114e-05
 Reference value :  1.43569e-05
 Reference value :  1.44480e-05
 Reference value :  1.45000e-05
 Reference value :  1.45000e-05
 Reference value :  1.45000e-05
 Reference value :  1.45001e-05
 Reference value :  1.45001e-05
 Reference value :  1.45001e-05
 Reference value :  1.45001e-05
 Reference value :  1.45001e-05
 Reference value :  1.45002e-05
 Reference value :  1.45002e-05
 Reference value :  1.45004e-05
 Reference value :  1.45005e-05
 Reference value :  1.45009e-05
 Reference value :  1.45014e-05
 Reference value :  1.45022e-05
 Reference value :  1.45029e-05
 Reference value :  1.45036e-05
 Reference value :  1.45043e-05
 Reference value :  1.45051e-05
 Reference value :  1.45059e-05
 Reference value :  1.45067e-05
 Reference value :  1.45078e-05
 Reference value :  1.45088e-05
 Reference value :  1.45097e-05
 Reference value :  1.45108e-05
 Reference value :  1.45120e-05
 Reference value :  1.45139e-05
 Reference value :  1.45152e-05
 Reference value :  1.45167e-05
 Reference value :  1.45181e-05
 Reference value :  1.45197e-05
 Reference value :  1.45212e-05
 Reference value :  1.45224e-05
 Reference value :  1.45236e-05
 Reference value :  1.45249e-05
 Reference value :  1.45262e-05
 Reference value :  1.45279e-05
 Reference value :  1.45295e-05
 Reference value :  1.45323e-05
 Reference value :  1.45348e-05
 Reference value :  1.45400e-05
 Reference value :  1.45461e-05
 Reference value :  1.45556e-05
 Reference value :  1.45659e-05
 Reference value :  1.45780e-05
 Reference value :  1.45989e-05
 Reference value :  1.46409e-05
 Reference value :  1.46843e-05
 Reference value :  1.47423e-05
 Reference value :  1.47501e-05
 Reference value :  1.47501e-05
 Reference value :  1.47501e-05
 Reference value :  1.47502e-05
 Reference value :  1.47502e-05
 Reference value :  1.47502e-05
 Reference value :  1.47502e-05
 Reference value :  1.47502e-05
 Reference value :  1.47502e-05
 Reference value :  1.47502e-05
 Reference value :  1.47502e-05
 Reference value :  1.47503e-05
 Reference value :  1.47504e-05
 Reference value :  1.47506e-05
 Reference value :  1.47509e-05
 Reference value :  1.47514e-05
 Reference value :  1.47519e-05
 Reference value :  1.47525e-05
 Reference value :  1.47533e-05
 Reference value :  1.47541e-05
 Reference value :  1.47553e-05
 Reference value :  1.47562e-05
 Reference value :  1.47571e-05
 Reference value :  1.47582e-05
 Reference value :  1.47598e-05
 Reference value :  1.47612e-05
 Reference value :  1.47638e-05
 Reference value :  1.47667e-05
 Reference value :  1.47721e-05
 Reference value :  1.47830e-05
 Reference value :  1.48017e-05
 Reference value :  1.48390e-05
 Reference value :  1.49124e-05
 Reference value :  1.50000e-05
 Reference value :  1.50000e-05
 Reference value :  1.50000e-05
 Reference value :  1.50001e-05
 Reference value :  1.50001e-05
 Reference value :  1.50001e-05
 Reference value :  1.50001e-05
 Reference value :  1.50001e-05
 Reference value :  1.50002e-05
 Reference value :  1.50002e-05
 Reference value :  1.50004e-05
 Reference value :  1.50005e-05
 Reference value :  1.50009e-05
 Reference value :  1.50014e-05
 Reference value :  1.50022e-05
 Reference value :  1.50028e-05
 Reference value :  1.50035e-05
 Reference value :  1.50042e-05
 Reference value :  1.50051e-05
 Reference value :  1.50061e-05
 Reference value :  1.50070e-05
 Reference value :  1.50085e-05
 Reference value :  1.50099e-05
 Reference value :  1.50113e-05
 Reference value :  1.50128e-05
 Reference value :  1.50142e-05
 Reference value :  1.50157e-05
 Reference value :  1.50172e-05
 Reference value :  1.50190e-05
 Reference value :  1.50226e-05
 Reference value :  1.50284e-05
 Reference value :  1.50401e-05
 Reference value :  1.50622e-05
 Reference value :  1.51032e-05
 Reference value :  1.51851e-05
 Reference value :  1.52501e-05
 Reference value :  1.52501e-05
 Reference value :  1.52501e-05
 Reference value :  1.52502e-05
 Reference value :  1.52502e-05
 Reference value :  1.52502e-05
 Reference value :  1.52502e-05
 Reference value :  1.52502e-05
 Reference value :  1.52502e-05
 Reference value :  1.52502e-05
 Reference value :  1.52502e-05
 Reference value :  1.52503e-05
 Reference value :  1.52504e-05
 Reference value :  1.52506e-05
 Reference value :  1.52509e-05
 Reference value :  1.52514e-05
 Reference value :  1.52519e-05
 Reference value :  1.52525e-05
 Reference value :  1.52533e-05
 Reference value :  1.52541e-05
 Reference value :  1.52553e-05
 Reference value :  1.52562e-05
 Reference value :  1.52572e-05
 Reference value :  1.52582e-05
 Reference value :  1.52593e-05
 Reference value :  1.52606e-05
 Reference value :  1.52619e-05
 Reference value :  1.52633e-05
 Reference value :  1.52654e-05
 Reference value :  1.52677e-05
 Reference value :  1.52714e-05
 Reference value :  1.52771e-05
 Reference value :  1.52886e-05
 Reference value :  1.53116e-05
 Reference value :  1.53565e-05
 Reference value :  1.54463e-05
 Reference value :  1.55000e-05
 Reference value :  1.55008e-05
 Reference value :  1.55023e-05
 Reference value :  1.55031e-05
 Reference value :  1.55039e-05
 Reference value :  1.55048e-05
 Reference value :  1.55058e-05
 Reference value :  1.55066e-05
 Reference value :  1.55075e-05
 Reference value :  1.55084e-05
 Reference value :  1.55094e-05
 Reference value :  1.55103e-05
 Reference value :  1.55116e-05
 Reference value :  1.55131e-05
 Reference value :  1.55149e-05
 Reference value :  1.55167e-05
 Reference value :  1.55186e-05
 Reference value :  1.55203e-05
 Reference value :  1.55218e-05
 Reference value :  1.55234e-05
 Reference value :  1.55248e-05
 Reference value :  1.55261e-05
 Reference value :  1.55277e-05
 Reference value :  1.55291e-05
 Reference value :  1.55313e-05
 Reference value :  1.55337e-05
 Reference value :  1.55383e-05
 Reference value :  1.55448e-05
 Reference value :  1.55528e-05
 Reference value :  1.55638e-05
 Reference value :  1.55839e-05
 Reference value :  1.56229e-05
 Reference value :  1.56970e-05
 Reference value :  1.57501e-05
 Reference value :  1.57501e-05
 Reference value :  1.57501e-05
 Reference value :  1.57502e-05
 Reference value :  1.57502e-05
 Reference value :  1.57502e-05
 Reference value :  1.57502e-05
 Reference value :  1.57502e-05
 Reference value :  1.57502e-05
 Reference value :  1.57502e-05
 Reference value :  1.57502e-05
[...]
 Reference value :  2.67750e-04
 Reference value :  2.67750e-04
 Reference value :  2.67750e-04
 Reference value :  2.67750e-04
 Reference value :  2.67750e-04
 Reference value :  2.67750e-04
 Reference value :  2.67750e-04
 Reference value :  2.67751e-04
 Reference value :  2.67751e-04
 Reference value :  2.67751e-04
 Reference value :  2.67752e-04
 Reference value :  2.67752e-04
 Reference value :  2.67753e-04
 Reference value :  2.67754e-04
 Reference value :  2.67755e-04
 Reference value :  2.67756e-04
 Reference value :  2.67757e-04
 Reference value :  2.67758e-04
 Reference value :  2.67760e-04
 Reference value :  2.67761e-04
 Reference value :  2.67764e-04
 Reference value :  2.67767e-04
 Reference value :  2.67772e-04
 Reference value :  2.67783e-04
 Reference value :  2.67802e-04
 Reference value :  2.67840e-04
 Reference value :  2.67914e-04
 Reference value :  2.68000e-04
 Reference value :  2.68000e-04
 Reference value :  2.68000e-04
 Reference value :  2.68000e-04
 Reference value :  2.68000e-04
 Reference value :  2.68000e-04
 Reference value :  2.68000e-04
 Reference value :  2.68000e-04
 Reference value :  2.68000e-04
 Reference value :  2.68000e-04
 Reference value :  2.68000e-04
 Reference value :  2.68001e-04
 Reference value :  2.68001e-04
 Reference value :  2.68001e-04
 Reference value :  2.68002e-04
 Reference value :  2.68003e-04
 Reference value :  2.68004e-04
 Reference value :  2.68004e-04
 Reference value :  2.68005e-04
 Reference value :  2.68006e-04
 Reference value :  2.68007e-04
 Reference value :  2.68009e-04
 Reference value :  2.68010e-04
 Reference value :  2.68011e-04
 Reference value :  2.68012e-04
 Reference value :  2.68014e-04
 Reference value :  2.68015e-04
 Reference value :  2.68017e-04
 Reference value :  2.68019e-04
 Reference value :  2.68022e-04
 Reference value :  2.68029e-04
 Reference value :  2.68041e-04
 Reference value :  2.68064e-04
 Reference value :  2.68109e-04
 Reference value :  2.68191e-04
 Reference value :  2.68250e-04
 Reference value :  2.68250e-04
 Reference value :  2.68250e-04
 Reference value :  2.68250e-04
 Reference value :  2.68250e-04
 Reference value :  2.68250e-04
 Reference value :  2.68250e-04
 Reference value :  2.68250e-04
 Reference value :  2.68250e-04
 Reference value :  2.68250e-04
 Reference value :  2.68250e-04
 Reference value :  2.68250e-04
 Reference value :  2.68250e-04
 Reference value :  2.68251e-04
 Reference value :  2.68251e-04
 Reference value :  2.68251e-04
 Reference value :  2.68252e-04
 Reference value :  2.68252e-04
 Reference value :  2.68253e-04
 Reference value :  2.68254e-04
 Reference value :  2.68255e-04
 Reference value :  2.68256e-04
 Reference value :  2.68257e-04
 Reference value :  2.68258e-04
 Reference value :  2.68259e-04
 Reference value :  2.68261e-04
 Reference value :  2.68263e-04
 Reference value :  2.68266e-04
 Reference value :  2.68270e-04
 Reference value :  2.68279e-04
 Reference value :  2.68296e-04
 Reference value :  2.68329e-04
 Reference value :  2.68395e-04
 Reference value :  2.68500e-04
 Reference value :  2.68500e-04
 Reference value :  2.68500e-04
 Reference value :  2.68500e-04
 Reference value :  2.68500e-04
 Reference value :  2.68500e-04
 Reference value :  2.68500e-04
 Reference value :  2.68500e-04
 Reference value :  2.68500e-04
 Reference value :  2.68500e-04
 Reference value :  2.68500e-04
 Reference value :  2.68501e-04
 Reference value :  2.68501e-04
 Reference value :  2.68501e-04
 Reference value :  2.68502e-04
 Reference value :  2.68503e-04
 Reference value :  2.68504e-04
 Reference value :  2.68504e-04
 Reference value :  2.68505e-04
 Reference value :  2.68506e-04
 Reference value :  2.68507e-04
 Reference value :  2.68508e-04
 Reference value :  2.68509e-04
 Reference value :  2.68510e-04
 Reference value :  2.68511e-04
 Reference value :  2.68512e-04
 Reference value :  2.68514e-04
 Reference value :  2.68516e-04
 Reference value :  2.68518e-04
 Reference value :  2.68520e-04
 Reference value :  2.68522e-04
 Reference value :  2.68524e-04
 Reference value :  2.68525e-04
 Reference value :  2.68527e-04
 Reference value :  2.68529e-04
 Reference value :  2.68531e-04
 Reference value :  2.68533e-04
 Reference value :  2.68538e-04
 Reference value :  2.68544e-04
 Reference value :  2.68555e-04
 Reference value :  2.68567e-04
 Reference value :  2.68578e-04
 Reference value :  2.68588e-04
 Reference value :  2.68595e-04
 Reference value :  2.68602e-04
 Reference value :  2.68609e-04
 Reference value :  2.68616e-04
 Reference value :  2.68624e-04
 Reference value :  2.68632e-04
 Reference value :  2.68646e-04
 Reference value :  2.68661e-04
 Reference value :  2.68685e-04
 Reference value :  2.68720e-04
 Reference value :  2.68750e-04
 Reference value :  2.68750e-04
 Reference value :  2.68750e-04
 Reference value :  2.68750e-04
 Reference value :  2.68750e-04
 Reference value :  2.68750e-04
 Reference value :  2.68750e-04
 Reference value :  2.68750e-04
 Reference value :  2.68750e-04
 Reference value :  2.68750e-04
 Reference value :  2.68750e-04
 Reference value :  2.68750e-04
 Reference value :  2.68750e-04
 Reference value :  2.68751e-04
 Reference value :  2.68751e-04
 Reference value :  2.68751e-04
 Reference value :  2.68752e-04
 Reference value :  2.68752e-04
 Reference value :  2.68753e-04
 Reference value :  2.68754e-04
 Reference value :  2.68755e-04
 Reference value :  2.68756e-04
 Reference value :  2.68757e-04
 Reference value :  2.68758e-04
 Reference value :  2.68760e-04
 Reference value :  2.68761e-04
 Reference value :  2.68764e-04
 Reference value :  2.68767e-04
 Reference value :  2.68772e-04
 Reference value :  2.68783e-04
 Reference value :  2.68802e-04
 Reference value :  2.68839e-04
 Reference value :  2.68911e-04
 Reference value :  2.69000e-04
 Reference value :  2.69000e-04
 Reference value :  2.69000e-04
 Reference value :  2.69000e-04
 Reference value :  2.69000e-04
 Reference value :  2.69000e-04
 Reference value :  2.69000e-04
 Reference value :  2.69000e-04
 Reference value :  2.69000e-04
 Reference value :  2.69000e-04
 Reference value :  2.69000e-04
 Reference value :  2.69001e-04
 Reference value :  2.69001e-04
 Reference value :  2.69001e-04
 Reference value :  2.69002e-04
 Reference value :  2.69003e-04
 Reference value :  2.69004e-04
 Reference value :  2.69004e-04
 Reference value :  2.69005e-04
 Reference value :  2.69006e-04
 Reference value :  2.69007e-04
 Reference value :  2.69009e-04
 Reference value :  2.69010e-04
 Reference value :  2.69011e-04
 Reference value :  2.69013e-04
 Reference value :  2.69014e-04
 Reference value :  2.69015e-04
 Reference value :  2.69017e-04
 Reference value :  2.69019e-04
 Reference value :  2.69022e-04
 Reference value :  2.69029e-04
 Reference value :  2.69040e-04
 Reference value :  2.69063e-04
 Reference value :  2.69107e-04
 Reference value :  2.69194e-04
 Reference value :  2.69250e-04
 Reference value :  2.69250e-04
 Reference value :  2.69250e-04
 Reference value :  2.69250e-04
 Reference value :  2.69250e-04
 Reference value :  2.69250e-04
 Reference value :  2.69250e-04
 Reference value :  2.69250e-04
 Reference value :  2.69250e-04
 Reference value :  2.69250e-04
 Reference value :  2.69250e-04
 Reference value :  2.69250e-04
 Reference value :  2.69250e-04
 Reference value :  2.69251e-04
 Reference value :  2.69251e-04
 Reference value :  2.69251e-04
 Reference value :  2.69252e-04
 Reference value :  2.69252e-04
 Reference value :  2.69253e-04
 Reference value :  2.69254e-04
 Reference value :  2.69255e-04
 Reference value :  2.69256e-04
 Reference value :  2.69257e-04
 Reference value :  2.69258e-04
 Reference value :  2.69259e-04
 Reference value :  2.69261e-04
 Reference value :  2.69262e-04
 Reference value :  2.69263e-04
 Reference value :  2.69265e-04
 Reference value :  2.69268e-04
 Reference value :  2.69271e-04
 Reference value :  2.69277e-04
 Reference value :  2.69288e-04
 Reference value :  2.69311e-04
 Reference value :  2.69356e-04
 Reference value :  2.69447e-04
 Reference value :  2.69500e-04
 Reference value :  2.69500e-04
 Reference value :  2.69500e-04
 Reference value :  2.69500e-04
 Reference value :  2.69500e-04
 Reference value :  2.69500e-04
 Reference value :  2.69500e-04
 Reference value :  2.69500e-04
 Reference value :  2.69500e-04
 Reference value :  2.69500e-04
 Reference value :  2.69500e-04
 Reference value :  2.69501e-04
 Reference value :  2.69501e-04
 Reference value :  2.69501e-04
 Reference value :  2.69502e-04
 Reference value :  2.69503e-04
 Reference value :  2.69504e-04
 Reference value :  2.69504e-04
 Reference value :  2.69505e-04
 Reference value :  2.69506e-04
 Reference value :  2.69507e-04
 Reference value :  2.69508e-04
 Reference value :  2.69509e-04
 Reference value :  2.69510e-04
 Reference value :  2.69511e-04
 Reference value :  2.69512e-04
 Reference value :  2.69514e-04
 Reference value :  2.69515e-04
 Reference value :  2.69517e-04
 Reference value :  2.69518e-04
 Reference value :  2.69520e-04
 Reference value :  2.69521e-04
 Reference value :  2.69522e-04
 Reference value :  2.69524e-04
 Reference value :  2.69525e-04
 Reference value :  2.69526e-04
 Reference value :  2.69528e-04
 Reference value :  2.69530e-04
 Reference value :  2.69532e-04
 Reference value :  2.69535e-04
 Reference value :  2.69537e-04
 Reference value :  2.69539e-04
 Reference value :  2.69541e-04
 Reference value :  2.69544e-04
 Reference value :  2.69546e-04
 Reference value :  2.69550e-04
 Reference value :  2.69557e-04
 Reference value :  2.69567e-04
 Reference value :  2.69580e-04
 Reference value :  2.69600e-04
 Reference value :  2.69633e-04
 Reference value :  2.69701e-04
 Reference value :  2.69750e-04
 Reference value :  2.69750e-04
 Reference value :  2.69750e-04
 Reference value :  2.69750e-04
 Reference value :  2.69750e-04
 Reference value :  2.69750e-04
 Reference value :  2.69750e-04
 Reference value :  2.69750e-04
 Reference value :  2.69750e-04
 Reference value :  2.69750e-04
 Reference value :  2.69750e-04
 Reference value :  2.69750e-04
 Reference value :  2.69750e-04
 Reference value :  2.69751e-04
 Reference value :  2.69751e-04
 Reference value :  2.69751e-04
 Reference value :  2.69752e-04
 Reference value :  2.69752e-04
 Reference value :  2.69753e-04
 Reference value :  2.69754e-04
 Reference value :  2.69755e-04
 Reference value :  2.69756e-04
 Reference value :  2.69757e-04
 Reference value :  2.69758e-04
 Reference value :  2.69760e-04
 Reference value :  2.69761e-04
 Reference value :  2.69763e-04
 Reference value :  2.69766e-04
 Reference value :  2.69771e-04
 Reference value :  2.69782e-04
 Reference value :  2.69800e-04
 Reference value :  2.69836e-04
 Reference value :  2.69908e-04
 Reference value :  2.70000e-04
 Reference value :  2.70000e-04
 Reference value :  2.70000e-04
 Reference value :  2.70000e-04
 Reference value :  2.70000e-04
 Reference value :  2.70000e-04
 Reference value :  2.70000e-04
 Reference value :  2.70000e-04
 Reference value :  2.70000e-04
 Reference value :  2.70000e-04
 Reference value :  2.70000e-04
 Reference value :  2.70001e-04
 Reference value :  2.70001e-04
 Reference value :  2.70001e-04
 Reference value :  2.70002e-04
 Reference value :  2.70003e-04
 Reference value :  2.70004e-04
 Reference value :  2.70004e-04
 Reference value :  2.70005e-04
 Reference value :  2.70006e-04
 Reference value :  2.70007e-04
 Reference value :  2.70009e-04
 Reference value :  2.70010e-04
 Reference value :  2.70011e-04
 Reference value :  2.70013e-04
 Reference value :  2.70014e-04
 Reference value :  2.70015e-04
 Reference value :  2.70017e-04
 Reference value :  2.70019e-04
 Reference value :  2.70022e-04
 Reference value :  2.70029e-04
 Reference value :  2.70040e-04
 Reference value :  2.70064e-04
 Reference value :  2.70107e-04
 Reference value :  2.70189e-04
 Reference value :  2.70250e-04
 Reference value :  2.70250e-04
 Reference value :  2.70250e-04
 Reference value :  2.70250e-04
 Reference value :  2.70250e-04
 Reference value :  2.70250e-04
 Reference value :  2.70250e-04
 Reference value :  2.70250e-04
 Reference value :  2.70250e-04
 Reference value :  2.70250e-04
 Reference value :  2.70250e-04
 Reference value :  2.70250e-04
 Reference value :  2.70250e-04
 Reference value :  2.70251e-04
 Reference value :  2.70251e-04
 Reference value :  2.70251e-04
 Reference value :  2.70252e-04
 Reference value :  2.70252e-04
 Reference value :  2.70253e-04
 Reference value :  2.70254e-04
 Reference value :  2.70255e-04
 Reference value :  2.70256e-04
 Reference value :  2.70257e-04
 Reference value :  2.70258e-04
 Reference value :  2.70259e-04
 Reference value :  2.70261e-04
 Reference value :  2.70263e-04
 Reference value :  2.70266e-04
 Reference value :  2.70270e-04
 Reference value :  2.70279e-04
 Reference value :  2.70296e-04
 Reference value :  2.70329e-04
 Reference value :  2.70396e-04
 Reference value :  2.70500e-04
 Reference value :  2.70500e-04
 Reference value :  2.70500e-04
 Reference value :  2.70500e-04
 Reference value :  2.70500e-04
 Reference value :  2.70500e-04
 Reference value :  2.70500e-04
 Reference value :  2.70500e-04
 Reference value :  2.70500e-04
 Reference value :  2.70500e-04
 Reference value :  2.70500e-04
 Reference value :  2.70501e-04
 Reference value :  2.70501e-04
 Reference value :  2.70501e-04
 Reference value :  2.70502e-04
 Reference value :  2.70503e-04
 Reference value :  2.70504e-04
 Reference value :  2.70504e-04
 Reference value :  2.70505e-04
 Reference value :  2.70506e-04
 Reference value :  2.70507e-04
 Reference value :  2.70508e-04
 Reference value :  2.70509e-04
 Reference value :  2.70510e-04
 Reference value :  2.70511e-04
 Reference value :  2.70512e-04
 Reference value :  2.70514e-04
 Reference value :  2.70516e-04
 Reference value :  2.70518e-04
 Reference value :  2.70521e-04
 Reference value :  2.70522e-04
 Reference value :  2.70524e-04
 Reference value :  2.70526e-04
 Reference value :  2.70528e-04
 Reference value :  2.70530e-04
 Reference value :  2.70532e-04
 Reference value :  2.70534e-04
 Reference value :  2.70539e-04
 Reference value :  2.70545e-04
 Reference value :  2.70556e-04
 Reference value :  2.70567e-04
 Reference value :  2.70588e-04
 Reference value :  2.70614e-04
 Reference value :  2.70668e-04
 Reference value :  2.70747e-04
 Reference value :  2.70750e-04
 Reference value :  2.70750e-04
 Reference value :  2.70750e-04
 Reference value :  2.70750e-04
 Reference value :  2.70750e-04
 Reference value :  2.70750e-04
 Reference value :  2.70750e-04
 Reference value :  2.70750e-04
 Reference value :  2.70750e-04
 Reference value :  2.70750e-04
 Reference value :  2.70750e-04
 Reference value :  2.70750e-04
 Reference value :  2.70750e-04
 Reference value :  2.70751e-04
 Reference value :  2.70751e-04
 Reference value :  2.70751e-04
 Reference value :  2.70752e-04
 Reference value :  2.70752e-04
 Reference value :  2.70753e-04
 Reference value :  2.70754e-04
 Reference value :  2.70755e-04
 Reference value :  2.70756e-04
 Reference value :  2.70757e-04
 Reference value :  2.70758e-04
 Reference value :  2.70760e-04
 Reference value :  2.70761e-04
 Reference value :  2.70764e-04
 Reference value :  2.70767e-04
 Reference value :  2.70773e-04
 Reference value :  2.70784e-04
 Reference value :  2.70803e-04
 Reference value :  2.70841e-04
 Reference value :  2.70911e-04
 Reference value :  2.71000e-04
 Reference value :  2.71000e-04
 Reference value :  2.71000e-04
 Reference value :  2.71000e-04
 Reference value :  2.71000e-04
 Reference value :  2.71000e-04
 Reference value :  2.71000e-04
 Reference value :  2.71000e-04
 Reference value :  2.71000e-04
 Reference value :  2.71000e-04
 Reference value :  2.71000e-04
 Reference value :  2.71001e-04
 Reference value :  2.71001e-04
 Reference value :  2.71001e-04
 Reference value :  2.71002e-04
 Reference value :  2.71003e-04
 Reference value :  2.71003e-04
 Reference value :  2.71004e-04
 Reference value :  2.71005e-04
 Reference value :  2.71006e-04
 Reference value :  2.71007e-04
 Reference value :  2.71008e-04
 Reference value :  2.71010e-04
 Reference value :  2.71011e-04
 Reference value :  2.71013e-04
 Reference value :  2.71014e-04
 Reference value :  2.71016e-04
 Reference value :  2.71018e-04
 Reference value :  2.71020e-04
 Reference value :  2.71024e-04
 Reference value :  2.71030e-04
 Reference value :  2.71041e-04
 Reference value :  2.71061e-04
 Reference value :  2.71099e-04
 Reference value :  2.71169e-04
 Reference value :  2.71250e-04
 Reference value :  2.71250e-04
 Reference value :  2.71250e-04
 Reference value :  2.71250e-04
 Reference value :  2.71250e-04
 Reference value :  2.71250e-04
 Reference value :  2.71250e-04
 Reference value :  2.71250e-04
 Reference value :  2.71250e-04
 Reference value :  2.71250e-04
 Reference value :  2.71250e-04
 Reference value :  2.71250e-04
 Reference value :  2.71250e-04
 Reference value :  2.71251e-04
 Reference value :  2.71251e-04
 Reference value :  2.71251e-04
 Reference value :  2.71252e-04
 Reference value :  2.71252e-04
 Reference value :  2.71253e-04
 Reference value :  2.71254e-04
 Reference value :  2.71255e-04
 Reference value :  2.71256e-04
 Reference value :  2.71257e-04
 Reference value :  2.71258e-04
 Reference value :  2.71259e-04
 Reference value :  2.71261e-04
 Reference value :  2.71263e-04
 Reference value :  2.71266e-04
 Reference value :  2.71271e-04
 Reference value :  2.71280e-04
 Reference value :  2.71298e-04
 Reference value :  2.71331e-04
 Reference value :  2.71397e-04
 Reference value :  2.71500e-04
 Reference value :  2.71500e-04
 Reference value :  2.71500e-04
 Reference value :  2.71500e-04
 Reference value :  2.71500e-04
 Reference value :  2.71500e-04
 Reference value :  2.71500e-04
 Reference value :  2.71500e-04
 Reference value :  2.71500e-04
 Reference value :  2.71500e-04
 Reference value :  2.71500e-04
 Reference value :  2.71501e-04
 Reference value :  2.71501e-04
 Reference value :  2.71501e-04
 Reference value :  2.71502e-04
 Reference value :  2.71503e-04
 Reference value :  2.71503e-04
 Reference value :  2.71504e-04
 Reference value :  2.71505e-04
 Reference value :  2.71506e-04
 Reference value :  2.71507e-04
 Reference value :  2.71508e-04
 Reference value :  2.71509e-04
 Reference value :  2.71510e-04
 Reference value :  2.71511e-04
 Reference value :  2.71512e-04
 Reference value :  2.71514e-04
 Reference value :  2.71516e-04
 Reference value :  2.71519e-04
 Reference value :  2.71521e-04
 Reference value :  2.71524e-04
 Reference value :  2.71527e-04
 Reference value :  2.71531e-04
 Reference value :  2.71537e-04
 Reference value :  2.71546e-04
 Reference value :  2.71559e-04
 Reference value :  2.71582e-04
 Reference value :  2.71619e-04
 Reference value :  2.71681e-04
 Reference value :  2.71750e-04
 Reference value :  2.71750e-04
 Reference value :  2.71750e-04
 Reference value :  2.71750e-04
 Reference value :  2.71750e-04
 Reference value :  2.71750e-04
 Reference value :  2.71750e-04
 Reference value :  2.71750e-04
 Reference value :  2.71750e-04
 Reference value :  2.71750e-04
 Reference value :  2.71750e-04
 Reference value :  2.71750e-04
 Reference value :  2.71750e-04
 Reference value :  2.71751e-04
 Reference value :  2.71751e-04
 Reference value :  2.71751e-04
 Reference value :  2.71752e-04
 Reference value :  2.71753e-04
 Reference value :  2.71753e-04
 Reference value :  2.71754e-04
 Reference value :  2.71755e-04
 Reference value :  2.71756e-04
 Reference value :  2.71758e-04
 Reference value :  2.71759e-04
 Reference value :  2.71761e-04
 Reference value :  2.71764e-04
 Reference value :  2.71767e-04
 Reference value :  2.71772e-04
 Reference value :  2.71782e-04
 Reference value :  2.71799e-04
 Reference value :  2.71832e-04
 Reference value :  2.71892e-04
 Reference value :  2.72000e-04
No. of Data Rows : 42143
ngspice-44 done
