
Note: Compatibility modes selected: hs a


Circuit: ** sch_path: /home/audrey/cace/sar-adc-using-sky130-pdk/runs/run_2025-09-01_17-16-19/parameters/power/run_4/power_consumption.sch

option SCALE: Scale is set to 1e-06 for instance and model parameters
option SCALE: Scale is set to 1e-06 for instance and model parameters
option SCALE: Scale is set to 1e-06 for instance and model parameters
option SCALE: Scale is set to 1e-06 for instance and model parameters
Doing analysis at TEMP = 27.000000 and TNOM = 27.000000

Using KLU as Direct Linear Solver
 Reference value :  0.00000e+00
 Reference value :  1.00000e-12
 Reference value :  2.00000e-12
 Reference value :  4.00000e-12
 Reference value :  8.00000e-12
 Reference value :  1.60000e-11
 Reference value :  3.20000e-11
 Reference value :  6.40000e-11
 Reference value :  1.00000e-10
 Reference value :  1.00578e-10
 Reference value :  1.01733e-10
 Reference value :  1.04044e-10
 Reference value :  1.08666e-10
 Reference value :  1.17910e-10
 Reference value :  1.36397e-10
 Reference value :  1.73372e-10
 Reference value :  2.31832e-10
 Reference value :  3.15440e-10
 Reference value :  4.57388e-10
 Reference value :  7.41282e-10
 Reference value :  1.17196e-09
 Reference value :  1.65011e-09
 Reference value :  2.27465e-09
 Reference value :  3.02011e-09
 Reference value :  3.73125e-09
 Reference value :  4.62095e-09
 Reference value :  5.34920e-09
 Reference value :  6.11876e-09
 Reference value :  6.97336e-09
 Reference value :  7.77591e-09
 Reference value :  8.61637e-09
 Reference value :  9.51888e-09
 Reference value :  1.06355e-08
 Reference value :  1.18173e-08
 Reference value :  1.31070e-08
 Reference value :  1.43330e-08
 Reference value :  1.57790e-08
 Reference value :  1.71628e-08
 Reference value :  1.90543e-08
 Reference value :  2.04643e-08
 Reference value :  2.18105e-08
 Reference value :  2.32191e-08
 Reference value :  2.49784e-08
 Reference value :  2.68306e-08
 Reference value :  2.90799e-08
 Reference value :  3.11904e-08
 Reference value :  3.28744e-08
 Reference value :  3.41980e-08
 Reference value :  3.51564e-08
 Reference value :  3.62488e-08
 Reference value :  3.78597e-08
 Reference value :  3.97035e-08
 Reference value :  4.28746e-08
 Reference value :  4.63142e-08
 Reference value :  5.00544e-08
 Reference value :  5.53143e-08
 Reference value :  6.01530e-08
 Reference value :  6.79408e-08
 Reference value :  7.92076e-08
 Reference value :  9.84808e-08
 Reference value :  1.18352e-07
 Reference value :  1.47609e-07
 Reference value :  1.82212e-07
 Reference value :  2.42911e-07
 Reference value :  2.50100e-07
 Reference value :  2.50110e-07
 Reference value :  2.50130e-07
 Reference value :  2.50170e-07
 Reference value :  2.50200e-07
 Reference value :  2.50201e-07
 Reference value :  2.50202e-07
 Reference value :  2.50204e-07
 Reference value :  2.50208e-07
 Reference value :  2.50216e-07
 Reference value :  2.50232e-07
 Reference value :  2.50265e-07
 Reference value :  2.50331e-07
 Reference value :  2.50413e-07
 Reference value :  2.50576e-07
 Reference value :  2.50756e-07
 Reference value :  2.51099e-07
 Reference value :  2.51497e-07
 Reference value :  2.52186e-07
 Reference value :  2.52821e-07
 Reference value :  2.53569e-07
 Reference value :  2.54552e-07
 Reference value :  2.55542e-07
 Reference value :  2.56566e-07
 Reference value :  2.57736e-07
 Reference value :  2.58849e-07
 Reference value :  2.60116e-07
 Reference value :  2.61381e-07
 Reference value :  2.63093e-07
 Reference value :  2.65815e-07
 Reference value :  2.69941e-07
 Reference value :  2.77652e-07
 Reference value :  2.90031e-07
 Reference value :  3.11971e-07
 Reference value :  3.50438e-07
 Reference value :  4.16202e-07
 Reference value :  5.00000e-07
 Reference value :  5.00010e-07
 Reference value :  5.00030e-07
 Reference value :  5.00070e-07
 Reference value :  5.00100e-07
 Reference value :  5.00101e-07
 Reference value :  5.00102e-07
 Reference value :  5.00104e-07
 Reference value :  5.00108e-07
 Reference value :  5.00116e-07
 Reference value :  5.00133e-07
 Reference value :  5.00166e-07
 Reference value :  5.00232e-07
 Reference value :  5.00364e-07
 Reference value :  5.00562e-07
 Reference value :  5.00958e-07
 Reference value :  5.01468e-07
 Reference value :  5.02004e-07
 Reference value :  5.02765e-07
 Reference value :  5.03571e-07
 Reference value :  5.04319e-07
 Reference value :  5.05131e-07
 Reference value :  5.06130e-07
 Reference value :  5.07181e-07
 Reference value :  5.08420e-07
 Reference value :  5.09733e-07
 Reference value :  5.11727e-07
 Reference value :  5.13533e-07
 Reference value :  5.15579e-07
 Reference value :  5.17539e-07
 Reference value :  5.19737e-07
 Reference value :  5.24135e-07
 Reference value :  5.27148e-07
 Reference value :  5.30650e-07
 Reference value :  5.34479e-07
 Reference value :  5.38537e-07
 Reference value :  5.44795e-07
 Reference value :  5.50742e-07
 Reference value :  5.60432e-07
 Reference value :  5.74381e-07
 Reference value :  6.02278e-07
 Reference value :  6.47852e-07
 Reference value :  7.29805e-07
 Reference value :  7.50100e-07
 Reference value :  7.50110e-07
 Reference value :  7.50130e-07
 Reference value :  7.50170e-07
 Reference value :  7.50200e-07
 Reference value :  7.50201e-07
 Reference value :  7.50202e-07
 Reference value :  7.50204e-07
 Reference value :  7.50208e-07
 Reference value :  7.50216e-07
 Reference value :  7.50233e-07
 Reference value :  7.50266e-07
 Reference value :  7.50333e-07
 Reference value :  7.50467e-07
 Reference value :  7.50644e-07
 Reference value :  7.50914e-07
 Reference value :  7.51453e-07
 Reference value :  7.52099e-07
 Reference value :  7.52800e-07
 Reference value :  7.53529e-07
 Reference value :  7.54426e-07
 Reference value :  7.55524e-07
 Reference value :  7.56676e-07
 Reference value :  7.57702e-07
 Reference value :  7.58796e-07
 Reference value :  7.59792e-07
 Reference value :  7.60841e-07
 Reference value :  7.62255e-07
 Reference value :  7.63761e-07
 Reference value :  7.66773e-07
 Reference value :  7.71839e-07
 Reference value :  7.79702e-07
 Reference value :  7.94912e-07
 Reference value :  8.19227e-07
 Reference value :  8.63132e-07
 Reference value :  9.41103e-07
 Reference value :  1.00000e-06
 Reference value :  1.00001e-06
 Reference value :  1.00003e-06
 Reference value :  1.00007e-06
 Reference value :  1.00010e-06
 Reference value :  1.00010e-06
 Reference value :  1.00010e-06
 Reference value :  1.00010e-06
 Reference value :  1.00011e-06
 Reference value :  1.00012e-06
 Reference value :  1.00013e-06
 Reference value :  1.00017e-06
 Reference value :  1.00023e-06
 Reference value :  1.00036e-06
 Reference value :  1.00056e-06
 Reference value :  1.00096e-06
 Reference value :  1.00147e-06
 Reference value :  1.00201e-06
 Reference value :  1.00276e-06
 Reference value :  1.00346e-06
 Reference value :  1.00420e-06
 Reference value :  1.00499e-06
 Reference value :  1.00587e-06
 Reference value :  1.00691e-06
 Reference value :  1.00774e-06
 Reference value :  1.00867e-06
 Reference value :  1.00966e-06
 Reference value :  1.01084e-06
 Reference value :  1.01249e-06
 Reference value :  1.01493e-06
 Reference value :  1.01837e-06
 Reference value :  1.02257e-06
 Reference value :  1.02578e-06
 Reference value :  1.02864e-06
 Reference value :  1.03083e-06
 Reference value :  1.03288e-06
 Reference value :  1.03523e-06
 Reference value :  1.03751e-06
 Reference value :  1.04006e-06
 Reference value :  1.04369e-06
 Reference value :  1.04816e-06
 Reference value :  1.05475e-06
 Reference value :  1.06450e-06
 Reference value :  1.07910e-06
 Reference value :  1.10224e-06
 Reference value :  1.13721e-06
 Reference value :  1.19282e-06
 Reference value :  1.25010e-06
 Reference value :  1.25011e-06
 Reference value :  1.25013e-06
 Reference value :  1.25017e-06
 Reference value :  1.25020e-06
 Reference value :  1.25020e-06
 Reference value :  1.25020e-06
 Reference value :  1.25020e-06
 Reference value :  1.25021e-06
 Reference value :  1.25022e-06
 Reference value :  1.25023e-06
 Reference value :  1.25027e-06
 Reference value :  1.25033e-06
 Reference value :  1.25047e-06
 Reference value :  1.25064e-06
 Reference value :  1.25091e-06
 Reference value :  1.25145e-06
 Reference value :  1.25210e-06
 Reference value :  1.25288e-06
 Reference value :  1.25358e-06
 Reference value :  1.25455e-06
 Reference value :  1.25561e-06
 Reference value :  1.25656e-06
 Reference value :  1.25766e-06
 Reference value :  1.25883e-06
 Reference value :  1.26002e-06
 Reference value :  1.26154e-06
 Reference value :  1.26423e-06
 Reference value :  1.26761e-06
 Reference value :  1.27325e-06
 Reference value :  1.28453e-06
 Reference value :  1.30109e-06
 Reference value :  1.33420e-06
 Reference value :  1.40043e-06
 Reference value :  1.50000e-06
 Reference value :  1.50001e-06
 Reference value :  1.50003e-06
 Reference value :  1.50007e-06
 Reference value :  1.50010e-06
 Reference value :  1.50010e-06
 Reference value :  1.50010e-06
 Reference value :  1.50010e-06
 Reference value :  1.50011e-06
 Reference value :  1.50012e-06
 Reference value :  1.50013e-06
 Reference value :  1.50017e-06
 Reference value :  1.50023e-06
 Reference value :  1.50036e-06
 Reference value :  1.50056e-06
 Reference value :  1.50095e-06
 Reference value :  1.50146e-06
 Reference value :  1.50200e-06
 Reference value :  1.50275e-06
 Reference value :  1.50344e-06
 Reference value :  1.50417e-06
 Reference value :  1.50500e-06
 Reference value :  1.50592e-06
 Reference value :  1.50700e-06
 Reference value :  1.50798e-06
 Reference value :  1.50966e-06
 Reference value :  1.51119e-06
 Reference value :  1.51312e-06
 Reference value :  1.51472e-06
 Reference value :  1.51641e-06
 Reference value :  1.51868e-06
 Reference value :  1.52099e-06
 Reference value :  1.52487e-06
 Reference value :  1.53001e-06
 Reference value :  1.53801e-06
 Reference value :  1.55076e-06
 Reference value :  1.57340e-06
 Reference value :  1.61498e-06
 Reference value :  1.69176e-06
 Reference value :  1.75010e-06
 Reference value :  1.75011e-06
 Reference value :  1.75013e-06
 Reference value :  1.75017e-06
 Reference value :  1.75020e-06
 Reference value :  1.75020e-06
 Reference value :  1.75020e-06
 Reference value :  1.75020e-06
 Reference value :  1.75021e-06
 Reference value :  1.75022e-06
 Reference value :  1.75023e-06
 Reference value :  1.75027e-06
 Reference value :  1.75033e-06
 Reference value :  1.75047e-06
 Reference value :  1.75064e-06
 Reference value :  1.75091e-06
 Reference value :  1.75145e-06
 Reference value :  1.75210e-06
 Reference value :  1.75288e-06
 Reference value :  1.75358e-06
 Reference value :  1.75454e-06
 Reference value :  1.75561e-06
 Reference value :  1.75653e-06
 Reference value :  1.75762e-06
 Reference value :  1.75852e-06
 Reference value :  1.75951e-06
 Reference value :  1.76068e-06
 Reference value :  1.76199e-06
 Reference value :  1.76463e-06
 Reference value :  1.76850e-06
 Reference value :  1.77518e-06
 Reference value :  1.78832e-06
 Reference value :  1.80992e-06
 Reference value :  1.85312e-06
 Reference value :  1.93951e-06
 Reference value :  2.00000e-06
 Reference value :  2.00001e-06
 Reference value :  2.00003e-06
 Reference value :  2.00007e-06
 Reference value :  2.00010e-06
 Reference value :  2.00010e-06
 Reference value :  2.00010e-06
 Reference value :  2.00010e-06
 Reference value :  2.00011e-06
 Reference value :  2.00012e-06
 Reference value :  2.00013e-06
 Reference value :  2.00017e-06
 Reference value :  2.00023e-06
 Reference value :  2.00036e-06
 Reference value :  2.00056e-06
 Reference value :  2.00095e-06
 Reference value :  2.00146e-06
 Reference value :  2.00200e-06
 Reference value :  2.00275e-06
 Reference value :  2.00345e-06
 Reference value :  2.00418e-06
 Reference value :  2.00498e-06
 Reference value :  2.00586e-06
 Reference value :  2.00661e-06
 Reference value :  2.00746e-06
 Reference value :  2.00819e-06
 Reference value :  2.00904e-06
 Reference value :  2.01012e-06
 Reference value :  2.01126e-06
 Reference value :  2.01328e-06
 Reference value :  2.01572e-06
 Reference value :  2.01879e-06
 Reference value :  2.02225e-06
 Reference value :  2.02507e-06
 Reference value :  2.02734e-06
 Reference value :  2.02948e-06
 Reference value :  2.03160e-06
 Reference value :  2.03377e-06
 Reference value :  2.03630e-06
 Reference value :  2.03953e-06
 Reference value :  2.04492e-06
 Reference value :  2.05212e-06
 Reference value :  2.06462e-06
 Reference value :  2.08341e-06
 Reference value :  2.11396e-06
 Reference value :  2.16306e-06
 Reference value :  2.24410e-06
 Reference value :  2.25010e-06
 Reference value :  2.25011e-06
 Reference value :  2.25013e-06
 Reference value :  2.25017e-06
 Reference value :  2.25020e-06
 Reference value :  2.25020e-06
 Reference value :  2.25020e-06
 Reference value :  2.25020e-06
 Reference value :  2.25021e-06
 Reference value :  2.25022e-06
 Reference value :  2.25023e-06
 Reference value :  2.25027e-06
 Reference value :  2.25033e-06
 Reference value :  2.25047e-06
 Reference value :  2.25064e-06
 Reference value :  2.25091e-06
 Reference value :  2.25145e-06
 Reference value :  2.25210e-06
 Reference value :  2.25288e-06
 Reference value :  2.25358e-06
 Reference value :  2.25454e-06
 Reference value :  2.25561e-06
 Reference value :  2.25659e-06
 Reference value :  2.25771e-06
 Reference value :  2.25880e-06
 Reference value :  2.26041e-06
 Reference value :  2.26247e-06
 Reference value :  2.26506e-06
 Reference value :  2.26894e-06
 Reference value :  2.27571e-06
 Reference value :  2.28669e-06
 Reference value :  2.30519e-06
 Reference value :  2.34218e-06
 Reference value :  2.41505e-06
 Reference value :  2.50000e-06
 Reference value :  2.50001e-06
 Reference value :  2.50003e-06
 Reference value :  2.50007e-06
 Reference value :  2.50010e-06
 Reference value :  2.50010e-06
 Reference value :  2.50010e-06
 Reference value :  2.50010e-06
 Reference value :  2.50011e-06
 Reference value :  2.50012e-06
 Reference value :  2.50013e-06
 Reference value :  2.50017e-06
 Reference value :  2.50023e-06
 Reference value :  2.50036e-06
 Reference value :  2.50055e-06
 Reference value :  2.50091e-06
 Reference value :  2.50141e-06
 Reference value :  2.50194e-06
 Reference value :  2.50269e-06
 Reference value :  2.50338e-06
 Reference value :  2.50409e-06
 Reference value :  2.50487e-06
 Reference value :  2.50575e-06
 Reference value :  2.50670e-06
 Reference value :  2.50792e-06
 Reference value :  2.50945e-06
 Reference value :  2.51166e-06
 Reference value :  2.51318e-06
 Reference value :  2.51483e-06
 Reference value :  2.51649e-06
 Reference value :  2.51879e-06
 Reference value :  2.52131e-06
 Reference value :  2.52555e-06
 Reference value :  2.53159e-06
 Reference value :  2.54131e-06
 Reference value :  2.56034e-06
 Reference value :  2.59015e-06
 Reference value :  2.64532e-06
 Reference value :  2.73989e-06
 Reference value :  2.75010e-06
 Reference value :  2.75011e-06
 Reference value :  2.75013e-06
 Reference value :  2.75017e-06
 Reference value :  2.75020e-06
 Reference value :  2.75020e-06
 Reference value :  2.75020e-06
 Reference value :  2.75020e-06
 Reference value :  2.75021e-06
 Reference value :  2.75022e-06
 Reference value :  2.75023e-06
 Reference value :  2.75027e-06
 Reference value :  2.75033e-06
 Reference value :  2.75047e-06
 Reference value :  2.75064e-06
 Reference value :  2.75091e-06
 Reference value :  2.75145e-06
 Reference value :  2.75210e-06
 Reference value :  2.75287e-06
 Reference value :  2.75358e-06
 Reference value :  2.75455e-06
 Reference value :  2.75549e-06
 Reference value :  2.75652e-06
 Reference value :  2.75754e-06
 Reference value :  2.75847e-06
 Reference value :  2.75954e-06
 Reference value :  2.76077e-06
 Reference value :  2.76322e-06
 Reference value :  2.76637e-06
 Reference value :  2.77092e-06
 Reference value :  2.77913e-06
 Reference value :  2.79351e-06
 Reference value :  2.81741e-06
 Reference value :  2.86520e-06
 Reference value :  2.96078e-06
 Reference value :  3.00000e-06
 Reference value :  3.00001e-06
 Reference value :  3.00003e-06
 Reference value :  3.00007e-06
 Reference value :  3.00010e-06
 Reference value :  3.00010e-06
 Reference value :  3.00010e-06
 Reference value :  3.00010e-06
 Reference value :  3.00011e-06
 Reference value :  3.00012e-06
 Reference value :  3.00013e-06
 Reference value :  3.00017e-06
 Reference value :  3.00023e-06
 Reference value :  3.00036e-06
 Reference value :  3.00055e-06
 Reference value :  3.00091e-06
 Reference value :  3.00141e-06
 Reference value :  3.00194e-06
 Reference value :  3.00269e-06
 Reference value :  3.00338e-06
 Reference value :  3.00409e-06
 Reference value :  3.00487e-06
 Reference value :  3.00574e-06
 Reference value :  3.00666e-06
 Reference value :  3.00763e-06
 Reference value :  3.00843e-06
 Reference value :  3.00935e-06
 Reference value :  3.01050e-06
 Reference value :  3.01173e-06
 Reference value :  3.01404e-06
 Reference value :  3.01621e-06
 Reference value :  3.01902e-06
 Reference value :  3.02131e-06
 Reference value :  3.02338e-06
 Reference value :  3.02483e-06
 Reference value :  3.02637e-06
 Reference value :  3.02796e-06
 Reference value :  3.02957e-06
 Reference value :  3.03141e-06
 Reference value :  3.03430e-06
 Reference value :  3.03728e-06
 Reference value :  3.04324e-06
 Reference value :  3.05176e-06
 Reference value :  3.06589e-06
 Reference value :  3.08165e-06
 Reference value :  3.10051e-06
 Reference value :  3.12033e-06
 Reference value :  3.13389e-06
 Reference value :  3.14658e-06
 Reference value :  3.15557e-06
 Reference value :  3.16676e-06
 Reference value :  3.18382e-06
 Reference value :  3.20366e-06
 Reference value :  3.22382e-06
 Reference value :  3.23904e-06
 Reference value :  3.24679e-06
 Reference value :  3.25010e-06
 Reference value :  3.25011e-06
 Reference value :  3.25013e-06
 Reference value :  3.25017e-06
 Reference value :  3.25020e-06
 Reference value :  3.25020e-06
 Reference value :  3.25020e-06
 Reference value :  3.25020e-06
 Reference value :  3.25021e-06
 Reference value :  3.25022e-06
 Reference value :  3.25023e-06
 Reference value :  3.25027e-06
 Reference value :  3.25033e-06
 Reference value :  3.25047e-06
 Reference value :  3.25064e-06
 Reference value :  3.25091e-06
 Reference value :  3.25145e-06
 Reference value :  3.25210e-06
 Reference value :  3.25287e-06
 Reference value :  3.25358e-06
 Reference value :  3.25455e-06
 Reference value :  3.25561e-06
 Reference value :  3.25650e-06
 Reference value :  3.25746e-06
 Reference value :  3.25845e-06
 Reference value :  3.25980e-06
 Reference value :  3.26122e-06
 Reference value :  3.26386e-06
 Reference value :  3.26712e-06
 Reference value :  3.27229e-06
 Reference value :  3.28264e-06
 Reference value :  3.29859e-06
 Reference value :  3.33027e-06
 Reference value :  3.39364e-06
 Reference value :  3.50000e-06
 Reference value :  3.50001e-06
 Reference value :  3.50003e-06
 Reference value :  3.50007e-06
 Reference value :  3.50010e-06
 Reference value :  3.50010e-06
 Reference value :  3.50010e-06
 Reference value :  3.50010e-06
 Reference value :  3.50011e-06
 Reference value :  3.50012e-06
 Reference value :  3.50013e-06
 Reference value :  3.50017e-06
 Reference value :  3.50023e-06
 Reference value :  3.50036e-06
 Reference value :  3.50055e-06
 Reference value :  3.50091e-06
 Reference value :  3.50141e-06
 Reference value :  3.50194e-06
 Reference value :  3.50269e-06
 Reference value :  3.50337e-06
 Reference value :  3.50409e-06
 Reference value :  3.50490e-06
 Reference value :  3.50579e-06
 Reference value :  3.50679e-06
 Reference value :  3.50791e-06
 Reference value :  3.50964e-06
 Reference value :  3.51111e-06
 Reference value :  3.51277e-06
 Reference value :  3.51448e-06
 Reference value :  3.51628e-06
 Reference value :  3.51806e-06
 Reference value :  3.52063e-06
 Reference value :  3.52348e-06
 Reference value :  3.52842e-06
 Reference value :  3.53589e-06
 Reference value :  3.54845e-06
 Reference value :  3.57095e-06
 Reference value :  3.60920e-06
 Reference value :  3.67899e-06
 Reference value :  3.75010e-06
 Reference value :  3.75011e-06
 Reference value :  3.75013e-06
 Reference value :  3.75017e-06
 Reference value :  3.75020e-06
 Reference value :  3.75020e-06
 Reference value :  3.75020e-06
 Reference value :  3.75020e-06
 Reference value :  3.75021e-06
 Reference value :  3.75022e-06
 Reference value :  3.75023e-06
 Reference value :  3.75027e-06
 Reference value :  3.75033e-06
 Reference value :  3.75047e-06
 Reference value :  3.75064e-06
 Reference value :  3.75091e-06
 Reference value :  3.75145e-06
 Reference value :  3.75210e-06
 Reference value :  3.75288e-06
 Reference value :  3.75358e-06
 Reference value :  3.75454e-06
 Reference value :  3.75561e-06
 Reference value :  3.75651e-06
 Reference value :  3.75749e-06
 Reference value :  3.75843e-06
 Reference value :  3.75944e-06
 Reference value :  3.76062e-06
 Reference value :  3.76298e-06
 Reference value :  3.76610e-06
 Reference value :  3.77060e-06
 Reference value :  3.77849e-06
 Reference value :  3.79426e-06
 Reference value :  3.82428e-06
 Reference value :  3.88432e-06
 Reference value :  4.00000e-06
 Reference value :  4.00001e-06
 Reference value :  4.00003e-06
 Reference value :  4.00007e-06
 Reference value :  4.00010e-06
 Reference value :  4.00010e-06
 Reference value :  4.00010e-06
 Reference value :  4.00010e-06
 Reference value :  4.00011e-06
 Reference value :  4.00012e-06
 Reference value :  4.00013e-06
 Reference value :  4.00017e-06
 Reference value :  4.00023e-06
 Reference value :  4.00036e-06
 Reference value :  4.00055e-06
 Reference value :  4.00091e-06
 Reference value :  4.00141e-06
 Reference value :  4.00194e-06
 Reference value :  4.00269e-06
 Reference value :  4.00337e-06
 Reference value :  4.00409e-06
 Reference value :  4.00488e-06
 Reference value :  4.00575e-06
 Reference value :  4.00657e-06
 Reference value :  4.00743e-06
 Reference value :  4.00840e-06
 Reference value :  4.00935e-06
 Reference value :  4.01035e-06
 Reference value :  4.01180e-06
 Reference value :  4.01329e-06
 Reference value :  4.01576e-06
 Reference value :  4.01845e-06
 Reference value :  4.02086e-06
 Reference value :  4.02345e-06
 Reference value :  4.02536e-06
 Reference value :  4.02719e-06
 Reference value :  4.02883e-06
 Reference value :  4.03059e-06
 Reference value :  4.03264e-06
 Reference value :  4.03525e-06
 Reference value :  4.03836e-06
 Reference value :  4.04337e-06
 Reference value :  4.04900e-06
 Reference value :  4.05544e-06
 Reference value :  4.06279e-06
 Reference value :  4.06838e-06
 Reference value :  4.07329e-06
 Reference value :  4.07843e-06
 Reference value :  4.08468e-06
 Reference value :  4.09092e-06
 Reference value :  4.09851e-06
 Reference value :  4.10667e-06
 Reference value :  4.12297e-06
 Reference value :  4.14196e-06
 Reference value :  4.16727e-06
 Reference value :  4.19853e-06
 Reference value :  4.24838e-06
 Reference value :  4.25010e-06
 Reference value :  4.25011e-06
 Reference value :  4.25013e-06
 Reference value :  4.25017e-06
 Reference value :  4.25020e-06
 Reference value :  4.25020e-06
 Reference value :  4.25020e-06
 Reference value :  4.25020e-06
 Reference value :  4.25021e-06
 Reference value :  4.25022e-06
 Reference value :  4.25023e-06
 Reference value :  4.25027e-06
 Reference value :  4.25033e-06
 Reference value :  4.25042e-06
 Reference value :  4.25058e-06
 Reference value :  4.25077e-06
 Reference value :  4.25109e-06
 Reference value :  4.25172e-06
 Reference value :  4.25234e-06
 Reference value :  4.25304e-06
 Reference value :  4.25378e-06
 Reference value :  4.25472e-06
 Reference value :  4.25551e-06
 Reference value :  4.25641e-06
 Reference value :  4.25730e-06
 Reference value :  4.25825e-06
 Reference value :  4.25981e-06
 Reference value :  4.26136e-06
 Reference value :  4.26398e-06
 Reference value :  4.26728e-06
 Reference value :  4.27244e-06
 Reference value :  4.28277e-06
 Reference value :  4.30343e-06
 Reference value :  4.34475e-06
 Reference value :  4.42739e-06
 Reference value :  4.50000e-06
 Reference value :  4.50001e-06
 Reference value :  4.50003e-06
 Reference value :  4.50007e-06
 Reference value :  4.50010e-06
 Reference value :  4.50010e-06
 Reference value :  4.50010e-06
 Reference value :  4.50010e-06
 Reference value :  4.50011e-06
 Reference value :  4.50012e-06
 Reference value :  4.50013e-06
 Reference value :  4.50017e-06
 Reference value :  4.50023e-06
 Reference value :  4.50036e-06
 Reference value :  4.50063e-06
 Reference value :  4.50110e-06
 Reference value :  4.50176e-06
 Reference value :  4.50247e-06
 Reference value :  4.50308e-06
 Reference value :  4.50385e-06
 Reference value :  4.50481e-06
 Reference value :  4.50576e-06
 Reference value :  4.50671e-06
 Reference value :  4.50793e-06
 Reference value :  4.50935e-06
 Reference value :  4.51105e-06
 Reference value :  4.51238e-06
 Reference value :  4.51383e-06
 Reference value :  4.51526e-06
 Reference value :  4.51697e-06
 Reference value :  4.51877e-06
 Reference value :  4.52206e-06
 Reference value :  4.52685e-06
 Reference value :  4.53576e-06
 Reference value :  4.55258e-06
 Reference value :  4.58212e-06
 Reference value :  4.64121e-06
 Reference value :  4.75010e-06
 Reference value :  4.75011e-06
 Reference value :  4.75013e-06
 Reference value :  4.75017e-06
 Reference value :  4.75020e-06
 Reference value :  4.75020e-06
 Reference value :  4.75020e-06
 Reference value :  4.75020e-06
 Reference value :  4.75021e-06
 Reference value :  4.75022e-06
 Reference value :  4.75023e-06
 Reference value :  4.75027e-06
 Reference value :  4.75033e-06
 Reference value :  4.75042e-06
 Reference value :  4.75058e-06
 Reference value :  4.75077e-06
 Reference value :  4.75108e-06
 Reference value :  4.75171e-06
 Reference value :  4.75233e-06
 Reference value :  4.75303e-06
 Reference value :  4.75377e-06
 Reference value :  4.75471e-06
 Reference value :  4.75554e-06
 Reference value :  4.75647e-06
 Reference value :  4.75729e-06
 Reference value :  4.75818e-06
 Reference value :  4.75921e-06
 Reference value :  4.76034e-06
 Reference value :  4.76176e-06
 Reference value :  4.76323e-06
 Reference value :  4.76561e-06
 Reference value :  4.76813e-06
 Reference value :  4.77190e-06
 Reference value :  4.77708e-06
 Reference value :  4.78744e-06
 Reference value :  4.80817e-06
 Reference value :  4.84963e-06
 Reference value :  4.93254e-06
 Reference value :  5.00000e-06
 Reference value :  5.00001e-06
 Reference value :  5.00003e-06
 Reference value :  5.00007e-06
 Reference value :  5.00010e-06
 Reference value :  5.00010e-06
 Reference value :  5.00010e-06
 Reference value :  5.00010e-06
 Reference value :  5.00011e-06
 Reference value :  5.00012e-06
 Reference value :  5.00013e-06
 Reference value :  5.00017e-06
 Reference value :  5.00023e-06
 Reference value :  5.00036e-06
 Reference value :  5.00063e-06
 Reference value :  5.00109e-06
 Reference value :  5.00175e-06
 Reference value :  5.00247e-06
 Reference value :  5.00309e-06
 Reference value :  5.00385e-06
 Reference value :  5.00471e-06
 Reference value :  5.00560e-06
 Reference value :  5.00636e-06
 Reference value :  5.00717e-06
 Reference value :  5.00788e-06
 Reference value :  5.00868e-06
 Reference value :  5.00965e-06
 Reference value :  5.01074e-06
 Reference value :  5.01293e-06
 Reference value :  5.01509e-06
 Reference value :  5.01736e-06
 Reference value :  5.01948e-06
 Reference value :  5.02163e-06
 Reference value :  5.02397e-06
 Reference value :  5.02621e-06
 Reference value :  5.02791e-06
 Reference value :  5.02951e-06
 Reference value :  5.03109e-06
 Reference value :  5.03274e-06
 Reference value :  5.03460e-06
 Reference value :  5.03686e-06
 Reference value :  5.03993e-06
 Reference value :  5.04198e-06
 Reference value :  5.04428e-06
 Reference value :  5.04685e-06
 Reference value :  5.04952e-06
 Reference value :  5.05470e-06
 Reference value :  5.06051e-06
 Reference value :  5.06895e-06
 Reference value :  5.07740e-06
 Reference value :  5.08647e-06
 Reference value :  5.09773e-06
 Reference value :  5.11623e-06
 Reference value :  5.14667e-06
 Reference value :  5.19979e-06
 Reference value :  5.25010e-06
 Reference value :  5.25011e-06
 Reference value :  5.25013e-06
 Reference value :  5.25017e-06
 Reference value :  5.25020e-06
 Reference value :  5.25020e-06
 Reference value :  5.25020e-06
 Reference value :  5.25020e-06
 Reference value :  5.25021e-06
 Reference value :  5.25022e-06
 Reference value :  5.25023e-06
 Reference value :  5.25027e-06
 Reference value :  5.25033e-06
 Reference value :  5.25042e-06
 Reference value :  5.25058e-06
 Reference value :  5.25076e-06
 Reference value :  5.25108e-06
 Reference value :  5.25172e-06
 Reference value :  5.25234e-06
 Reference value :  5.25305e-06
 Reference value :  5.25379e-06
 Reference value :  5.25473e-06
 Reference value :  5.25576e-06
 Reference value :  5.25652e-06
 Reference value :  5.25740e-06
 Reference value :  5.25838e-06
 Reference value :  5.25951e-06
 Reference value :  5.26072e-06
 Reference value :  5.26314e-06
 Reference value :  5.26626e-06
 Reference value :  5.27080e-06
 Reference value :  5.27953e-06
 Reference value :  5.29697e-06
 Reference value :  5.33187e-06
 Reference value :  5.40167e-06
 Reference value :  5.50000e-06
 Reference value :  5.50001e-06
 Reference value :  5.50003e-06
 Reference value :  5.50007e-06
 Reference value :  5.50010e-06
 Reference value :  5.50010e-06
 Reference value :  5.50010e-06
 Reference value :  5.50010e-06
 Reference value :  5.50011e-06
 Reference value :  5.50012e-06
 Reference value :  5.50013e-06
 Reference value :  5.50017e-06
 Reference value :  5.50023e-06
 Reference value :  5.50036e-06
 Reference value :  5.50063e-06
 Reference value :  5.50110e-06
 Reference value :  5.50176e-06
 Reference value :  5.50247e-06
 Reference value :  5.50308e-06
 Reference value :  5.50385e-06
 Reference value :  5.50481e-06
 Reference value :  5.50576e-06
 Reference value :  5.50670e-06
 Reference value :  5.50780e-06
 Reference value :  5.50917e-06
 Reference value :  5.51076e-06
 Reference value :  5.51223e-06
 Reference value :  5.51357e-06
 Reference value :  5.51506e-06
 Reference value :  5.51671e-06
 Reference value :  5.51841e-06
 Reference value :  5.52182e-06
 Reference value :  5.52674e-06
 Reference value :  5.53655e-06
 Reference value :  5.55454e-06
 Reference value :  5.58739e-06
 Reference value :  5.65228e-06
 Reference value :  5.75010e-06
 Reference value :  5.75011e-06
 Reference value :  5.75013e-06
 Reference value :  5.75017e-06
 Reference value :  5.75020e-06
 Reference value :  5.75020e-06
 Reference value :  5.75020e-06
 Reference value :  5.75020e-06
 Reference value :  5.75021e-06
 Reference value :  5.75022e-06
 Reference value :  5.75023e-06
 Reference value :  5.75027e-06
 Reference value :  5.75033e-06
 Reference value :  5.75041e-06
 Reference value :  5.75058e-06
 Reference value :  5.75077e-06
 Reference value :  5.75108e-06
 Reference value :  5.75170e-06
 Reference value :  5.75233e-06
 Reference value :  5.75303e-06
 Reference value :  5.75376e-06
 Reference value :  5.75470e-06
 Reference value :  5.75573e-06
 Reference value :  5.75649e-06
 Reference value :  5.75737e-06
 Reference value :  5.75836e-06
 Reference value :  5.75928e-06
 Reference value :  5.76082e-06
 Reference value :  5.76226e-06
 Reference value :  5.76514e-06
 Reference value :  5.76897e-06
 Reference value :  5.77662e-06
 Reference value :  5.79192e-06
 Reference value :  5.82253e-06
 Reference value :  5.88375e-06
 Reference value :  6.00000e-06
 Reference value :  6.00001e-06
 Reference value :  6.00003e-06
 Reference value :  6.00007e-06
 Reference value :  6.00010e-06
 Reference value :  6.00010e-06
 Reference value :  6.00010e-06
 Reference value :  6.00010e-06
 Reference value :  6.00011e-06
 Reference value :  6.00012e-06
 Reference value :  6.00013e-06
 Reference value :  6.00017e-06
 Reference value :  6.00023e-06
 Reference value :  6.00036e-06
 Reference value :  6.00063e-06
 Reference value :  6.00109e-06
 Reference value :  6.00175e-06
 Reference value :  6.00247e-06
 Reference value :  6.00309e-06
 Reference value :  6.00385e-06
 Reference value :  6.00482e-06
 Reference value :  6.00571e-06
 Reference value :  6.00666e-06
 Reference value :  6.00758e-06
 Reference value :  6.00857e-06
 Reference value :  6.00958e-06
 Reference value :  6.01081e-06
 Reference value :  6.01258e-06
 Reference value :  6.01489e-06
 Reference value :  6.01895e-06
 Reference value :  6.02380e-06
 Reference value :  6.02716e-06
 Reference value :  6.03001e-06
 Reference value :  6.03271e-06
 Reference value :  6.03547e-06
 Reference value :  6.03830e-06
 Reference value :  6.04154e-06
 Reference value :  6.04491e-06
 Reference value :  6.04870e-06
 Reference value :  6.05223e-06
 Reference value :  6.05631e-06
 Reference value :  6.06189e-06
 Reference value :  6.06598e-06
 Reference value :  6.07030e-06
 Reference value :  6.07656e-06
 Reference value :  6.08387e-06
 Reference value :  6.09087e-06
 Reference value :  6.09793e-06
 Reference value :  6.10561e-06
 Reference value :  6.12096e-06
 Reference value :  6.14052e-06
 Reference value :  6.17299e-06
 Reference value :  6.23001e-06
 Reference value :  6.25010e-06
 Reference value :  6.25011e-06
 Reference value :  6.25013e-06
 Reference value :  6.25017e-06
 Reference value :  6.25020e-06
 Reference value :  6.25020e-06
 Reference value :  6.25020e-06
 Reference value :  6.25020e-06
 Reference value :  6.25021e-06
 Reference value :  6.25022e-06
 Reference value :  6.25023e-06
 Reference value :  6.25027e-06
 Reference value :  6.25033e-06
 Reference value :  6.25041e-06
 Reference value :  6.25058e-06
 Reference value :  6.25076e-06
 Reference value :  6.25106e-06
 Reference value :  6.25165e-06
 Reference value :  6.25228e-06
 Reference value :  6.25298e-06
 Reference value :  6.25371e-06
 Reference value :  6.25463e-06
 Reference value :  6.25565e-06
 Reference value :  6.25691e-06
 Reference value :  6.25800e-06
 Reference value :  6.25913e-06
 Reference value :  6.26036e-06
 Reference value :  6.26214e-06
 Reference value :  6.26426e-06
 Reference value :  6.26806e-06
 Reference value :  6.27410e-06
 Reference value :  6.28470e-06
 Reference value :  6.30458e-06
 Reference value :  6.34435e-06
 Reference value :  6.42389e-06
 Reference value :  6.50000e-06
 Reference value :  6.50001e-06
 Reference value :  6.50003e-06
 Reference value :  6.50007e-06
 Reference value :  6.50010e-06
 Reference value :  6.50010e-06
 Reference value :  6.50010e-06
 Reference value :  6.50010e-06
 Reference value :  6.50011e-06
 Reference value :  6.50012e-06
 Reference value :  6.50013e-06
 Reference value :  6.50017e-06
 Reference value :  6.50023e-06
 Reference value :  6.50036e-06
 Reference value :  6.50063e-06
 Reference value :  6.50110e-06
 Reference value :  6.50176e-06
 Reference value :  6.50246e-06
 Reference value :  6.50308e-06
 Reference value :  6.50385e-06
 Reference value :  6.50480e-06
 Reference value :  6.50576e-06
 Reference value :  6.50670e-06
 Reference value :  6.50783e-06
 Reference value :  6.50899e-06
 Reference value :  6.51102e-06
 Reference value :  6.51290e-06
 Reference value :  6.51453e-06
 Reference value :  6.51626e-06
 Reference value :  6.51865e-06
 Reference value :  6.52097e-06
 Reference value :  6.52517e-06
 Reference value :  6.53092e-06
 Reference value :  6.54047e-06
 Reference value :  6.55623e-06
 Reference value :  6.58420e-06
 Reference value :  6.63252e-06
 Reference value :  6.72091e-06
 Reference value :  6.75010e-06
 Reference value :  6.75011e-06
 Reference value :  6.75013e-06
 Reference value :  6.75017e-06
 Reference value :  6.75020e-06
 Reference value :  6.75020e-06
 Reference value :  6.75020e-06
 Reference value :  6.75020e-06
 Reference value :  6.75021e-06
 Reference value :  6.75022e-06
 Reference value :  6.75023e-06
 Reference value :  6.75027e-06
 Reference value :  6.75033e-06
 Reference value :  6.75041e-06
 Reference value :  6.75058e-06
 Reference value :  6.75080e-06
 Reference value :  6.75107e-06
 Reference value :  6.75163e-06
 Reference value :  6.75225e-06
 Reference value :  6.75292e-06
 Reference value :  6.75365e-06
 Reference value :  6.75457e-06
 Reference value :  6.75558e-06
 Reference value :  6.75681e-06
 Reference value :  6.75779e-06
 Reference value :  6.75883e-06
 Reference value :  6.75987e-06
 Reference value :  6.76097e-06
 Reference value :  6.76218e-06
 Reference value :  6.76355e-06
 Reference value :  6.76503e-06
 Reference value :  6.76752e-06
 Reference value :  6.77020e-06
 Reference value :  6.77437e-06
 Reference value :  6.78090e-06
 Reference value :  6.79395e-06
 Reference value :  6.81483e-06
 Reference value :  6.85648e-06
 Reference value :  6.93978e-06
 Reference value :  7.00000e-06
 Reference value :  7.00001e-06
 Reference value :  7.00003e-06
 Reference value :  7.00007e-06
 Reference value :  7.00010e-06
 Reference value :  7.00010e-06
 Reference value :  7.00010e-06
 Reference value :  7.00010e-06
 Reference value :  7.00011e-06
 Reference value :  7.00012e-06
 Reference value :  7.00013e-06
 Reference value :  7.00017e-06
 Reference value :  7.00023e-06
 Reference value :  7.00036e-06
 Reference value :  7.00063e-06
 Reference value :  7.00109e-06
 Reference value :  7.00176e-06
 Reference value :  7.00246e-06
 Reference value :  7.00309e-06
 Reference value :  7.00385e-06
 Reference value :  7.00481e-06
 Reference value :  7.00571e-06
 Reference value :  7.00665e-06
 Reference value :  7.00739e-06
 Reference value :  7.00824e-06
 Reference value :  7.00911e-06
 Reference value :  7.00996e-06
 Reference value :  7.01105e-06
 Reference value :  7.01223e-06
 Reference value :  7.01457e-06
 Reference value :  7.01714e-06
 Reference value :  7.01909e-06
 Reference value :  7.02115e-06
 Reference value :  7.02313e-06
 Reference value :  7.02548e-06
 Reference value :  7.02742e-06
 Reference value :  7.02894e-06
 Reference value :  7.03034e-06
 Reference value :  7.03174e-06
 Reference value :  7.03322e-06
 Reference value :  7.03464e-06
 Reference value :  7.03626e-06
 Reference value :  7.03797e-06
 Reference value :  7.03974e-06
 Reference value :  7.04180e-06
 Reference value :  7.04478e-06
 Reference value :  7.04841e-06
 Reference value :  7.05550e-06
 Reference value :  7.06618e-06
 Reference value :  7.08754e-06
 Reference value :  7.12582e-06
 Reference value :  7.18118e-06
 Reference value :  7.25010e-06
 Reference value :  7.25011e-06
 Reference value :  7.25013e-06
 Reference value :  7.25017e-06
 Reference value :  7.25020e-06
 Reference value :  7.25020e-06
 Reference value :  7.25020e-06
 Reference value :  7.25020e-06
 Reference value :  7.25021e-06
 Reference value :  7.25022e-06
 Reference value :  7.25023e-06
 Reference value :  7.25027e-06
 Reference value :  7.25033e-06
 Reference value :  7.25042e-06
 Reference value :  7.25059e-06
 Reference value :  7.25077e-06
 Reference value :  7.25107e-06
 Reference value :  7.25167e-06
 Reference value :  7.25229e-06
 Reference value :  7.25299e-06
 Reference value :  7.25372e-06
 Reference value :  7.25465e-06
 Reference value :  7.25566e-06
 Reference value :  7.25661e-06
 Reference value :  7.25771e-06
 Reference value :  7.25883e-06
 Reference value :  7.25994e-06
 Reference value :  7.26167e-06
 Reference value :  7.26360e-06
 Reference value :  7.26715e-06
 Reference value :  7.27221e-06
 Reference value :  7.28233e-06
 Reference value :  7.30026e-06
 Reference value :  7.33351e-06
 Reference value :  7.39844e-06
 Reference value :  7.50000e-06
 Reference value :  7.50001e-06
 Reference value :  7.50003e-06
 Reference value :  7.50007e-06
 Reference value :  7.50010e-06
 Reference value :  7.50010e-06
 Reference value :  7.50010e-06
 Reference value :  7.50010e-06
 Reference value :  7.50011e-06
 Reference value :  7.50012e-06
 Reference value :  7.50013e-06
 Reference value :  7.50017e-06
 Reference value :  7.50023e-06
 Reference value :  7.50036e-06
 Reference value :  7.50063e-06
 Reference value :  7.50110e-06
 Reference value :  7.50172e-06
 Reference value :  7.50245e-06
 Reference value :  7.50308e-06
 Reference value :  7.50384e-06
 Reference value :  7.50479e-06
 Reference value :  7.50575e-06
 Reference value :  7.50668e-06
 Reference value :  7.50782e-06
 Reference value :  7.50899e-06
 Reference value :  7.51074e-06
 Reference value :  7.51284e-06
 Reference value :  7.51455e-06
 Reference value :  7.51634e-06
 Reference value :  7.51856e-06
 Reference value :  7.52083e-06
 Reference value :  7.52469e-06
 Reference value :  7.52996e-06
 Reference value :  7.53884e-06
 Reference value :  7.55329e-06
 Reference value :  7.57771e-06
 Reference value :  7.62290e-06
 Reference value :  7.70939e-06
 Reference value :  7.75010e-06
 Reference value :  7.75011e-06
 Reference value :  7.75013e-06
 Reference value :  7.75017e-06
 Reference value :  7.75020e-06
 Reference value :  7.75020e-06
 Reference value :  7.75020e-06
 Reference value :  7.75020e-06
 Reference value :  7.75021e-06
 Reference value :  7.75022e-06
 Reference value :  7.75023e-06
 Reference value :  7.75027e-06
 Reference value :  7.75033e-06
 Reference value :  7.75042e-06
 Reference value :  7.75059e-06
 Reference value :  7.75082e-06
 Reference value :  7.75109e-06
 Reference value :  7.75165e-06
 Reference value :  7.75226e-06
 Reference value :  7.75292e-06
 Reference value :  7.75365e-06
 Reference value :  7.75457e-06
 Reference value :  7.75558e-06
 Reference value :  7.75658e-06
 Reference value :  7.75763e-06
 Reference value :  7.75857e-06
 Reference value :  7.75956e-06
 Reference value :  7.76064e-06
 Reference value :  7.76190e-06
 Reference value :  7.76442e-06
 Reference value :  7.76858e-06
 Reference value :  7.77508e-06
 Reference value :  7.78809e-06
 Reference value :  7.81410e-06
 Reference value :  7.86613e-06
 Reference value :  7.97019e-06
 Reference value :  8.00000e-06
 Reference value :  8.00001e-06
 Reference value :  8.00003e-06
 Reference value :  8.00007e-06
 Reference value :  8.00010e-06
 Reference value :  8.00010e-06
 Reference value :  8.00010e-06
 Reference value :  8.00010e-06
 Reference value :  8.00011e-06
 Reference value :  8.00012e-06
 Reference value :  8.00013e-06
 Reference value :  8.00017e-06
 Reference value :  8.00023e-06
 Reference value :  8.00036e-06
 Reference value :  8.00063e-06
 Reference value :  8.00110e-06
 Reference value :  8.00172e-06
 Reference value :  8.00245e-06
 Reference value :  8.00308e-06
 Reference value :  8.00385e-06
 Reference value :  8.00482e-06
 Reference value :  8.00575e-06
 Reference value :  8.00670e-06
 Reference value :  8.00756e-06
 Reference value :  8.00851e-06
 Reference value :  8.00954e-06
 Reference value :  8.01070e-06
 Reference value :  8.01242e-06
 Reference value :  8.01395e-06
 Reference value :  8.01557e-06
 Reference value :  8.01724e-06
 Reference value :  8.01905e-06
 Reference value :  8.02268e-06
 Reference value :  8.02810e-06
 Reference value :  8.03700e-06
 Reference value :  8.05478e-06
 Reference value :  8.09035e-06
 Reference value :  8.16148e-06
 Reference value :  8.25010e-06
 Reference value :  8.25011e-06
 Reference value :  8.25013e-06
 Reference value :  8.25017e-06
 Reference value :  8.25020e-06
 Reference value :  8.25020e-06
 Reference value :  8.25020e-06
 Reference value :  8.25020e-06
 Reference value :  8.25021e-06
 Reference value :  8.25022e-06
 Reference value :  8.25023e-06
 Reference value :  8.25027e-06
 Reference value :  8.25033e-06
 Reference value :  8.25047e-06
 Reference value :  8.25064e-06
 Reference value :  8.25085e-06
 Reference value :  8.25127e-06
 Reference value :  8.25193e-06
 Reference value :  8.25261e-06
 Reference value :  8.25331e-06
 Reference value :  8.25422e-06
 Reference value :  8.25545e-06
 Reference value :  8.25660e-06
 Reference value :  8.25789e-06
 Reference value :  8.25953e-06
 Reference value :  8.26158e-06
 Reference value :  8.26425e-06
 Reference value :  8.26765e-06
 Reference value :  8.27258e-06
 Reference value :  8.28244e-06
 Reference value :  8.29642e-06
 Reference value :  8.32437e-06
 Reference value :  8.38026e-06
 Reference value :  8.48708e-06
 Reference value :  8.50000e-06
No. of Data Rows : 1380
ngspice-44 done
