
Note: Compatibility modes selected: hs a


Circuit: ** sch_path: /home/ece/cace/sar-adc-using-sky130-pdk/runs/run_2025-09-13_02-53-27/parameters/sndr/run_2/sndr_enob_fom.sch

option SCALE: Scale is set to 1e-06 for instance and model parameters
option SCALE: Scale is set to 1e-06 for instance and model parameters
option SCALE: Scale is set to 1e-06 for instance and model parameters
option SCALE: Scale is set to 1e-06 for instance and model parameters
Doing analysis at TEMP = 27.000000 and TNOM = 27.000000

Using KLU as Direct Linear Solver
Operating point simulation skipped by 'uic',
  now using transient initial conditions.
 Reference value :  1.00000e-12
 Reference value :  1.19600e-12
 Reference value :  4.48338e-12
 Reference value :  3.48187e-11
 Reference value :  1.05577e-10
 Reference value :  2.72880e-10
 Reference value :  9.81444e-10
 Reference value :  2.50469e-09
 Reference value :  5.07187e-09
 Reference value :  6.75786e-09
 Reference value :  8.30106e-09
 Reference value :  1.15743e-08
 Reference value :  2.49407e-08
 Reference value :  3.31588e-08
 Reference value :  9.41417e-08
 Reference value :  2.50110e-07
 Reference value :  2.50208e-07
 Reference value :  2.50312e-07
 Reference value :  2.50528e-07
 Reference value :  2.51271e-07
 Reference value :  2.52085e-07
 Reference value :  2.53198e-07
 Reference value :  2.54203e-07
 Reference value :  2.56172e-07
 Reference value :  2.63828e-07
 Reference value :  3.27343e-07
 Reference value :  5.00030e-07
 Reference value :  5.00124e-07
 Reference value :  5.00338e-07
 Reference value :  5.01186e-07
 Reference value :  5.01942e-07
 Reference value :  5.02818e-07
 Reference value :  5.04630e-07
 Reference value :  5.06443e-07
 Reference value :  5.08785e-07
 Reference value :  5.11229e-07
 Reference value :  5.13778e-07
 Reference value :  5.20636e-07
 Reference value :  5.81624e-07
 Reference value :  7.50130e-07
 Reference value :  7.50224e-07
 Reference value :  7.50688e-07
 Reference value :  7.51397e-07
 Reference value :  7.52990e-07
 Reference value :  7.53972e-07
 Reference value :  7.55028e-07
 Reference value :  7.56545e-07
 Reference value :  7.59544e-07
 Reference value :  7.67041e-07
 Reference value :  8.72995e-07
 Reference value :  1.00003e-06
 Reference value :  1.00012e-06
 Reference value :  1.00034e-06
 Reference value :  1.00119e-06
 Reference value :  1.00201e-06
 Reference value :  1.00290e-06
 Reference value :  1.00389e-06
 Reference value :  1.00484e-06
 Reference value :  1.00663e-06
 Reference value :  1.00933e-06
 Reference value :  1.01018e-06
 Reference value :  1.01192e-06
 Reference value :  1.01353e-06
 Reference value :  1.01624e-06
 Reference value :  1.01880e-06
 Reference value :  1.02912e-06
 Reference value :  1.14242e-06
 Reference value :  1.25013e-06
 Reference value :  1.25022e-06
 Reference value :  1.25069e-06
 Reference value :  1.25140e-06
 Reference value :  1.25300e-06
 Reference value :  1.25397e-06
 Reference value :  1.25601e-06
 Reference value :  1.26540e-06
 Reference value :  1.37557e-06
 Reference value :  1.50001e-06
 Reference value :  1.50010e-06
 Reference value :  1.50022e-06
 Reference value :  1.50083e-06
 Reference value :  1.50195e-06
 Reference value :  1.50333e-06
 Reference value :  1.50536e-06
 Reference value :  1.50598e-06
 Reference value :  1.50749e-06
 Reference value :  1.51030e-06
 Reference value :  1.52259e-06
 Reference value :  1.65030e-06
 Reference value :  1.75017e-06
 Reference value :  1.75026e-06
 Reference value :  1.75069e-06
 Reference value :  1.75140e-06
 Reference value :  1.75299e-06
 Reference value :  1.75397e-06
 Reference value :  1.75502e-06
 Reference value :  1.75661e-06
 Reference value :  1.75966e-06
 Reference value :  1.77510e-06
 Reference value :  2.00000e-06
 Reference value :  2.00007e-06
 Reference value :  2.00016e-06
 Reference value :  2.00052e-06
 Reference value :  2.00158e-06
 Reference value :  2.00242e-06
 Reference value :  2.00342e-06
 Reference value :  2.00440e-06
 Reference value :  2.00534e-06
 Reference value :  2.00758e-06
 Reference value :  2.00933e-06
 Reference value :  2.01017e-06
 Reference value :  2.01191e-06
 Reference value :  2.01353e-06
 Reference value :  2.01528e-06
 Reference value :  2.01722e-06
 Reference value :  2.02367e-06
 Reference value :  2.07798e-06
 Reference value :  2.25010e-06
 Reference value :  2.25017e-06
 Reference value :  2.25026e-06
 Reference value :  2.25098e-06
 Reference value :  2.25186e-06
 Reference value :  2.25299e-06
 Reference value :  2.25397e-06
 Reference value :  2.25601e-06
 Reference value :  2.26174e-06
 Reference value :  2.31676e-06
 Reference value :  2.50001e-06
 Reference value :  2.50010e-06
 Reference value :  2.50022e-06
 Reference value :  2.50083e-06
 Reference value :  2.50154e-06
 Reference value :  2.50282e-06
 Reference value :  2.50464e-06
 Reference value :  2.50598e-06
 Reference value :  2.50749e-06
 Reference value :  2.51029e-06
 Reference value :  2.52243e-06
 Reference value :  2.64749e-06
 Reference value :  2.75013e-06
 Reference value :  2.75022e-06
 Reference value :  2.75069e-06
 Reference value :  2.75140e-06
 Reference value :  2.75299e-06
 Reference value :  2.75397e-06
 Reference value :  2.75502e-06
 Reference value :  2.75661e-06
 Reference value :  2.75964e-06
 Reference value :  2.77493e-06
 Reference value :  3.00000e-06
 Reference value :  3.00010e-06
 Reference value :  3.00022e-06
 Reference value :  3.00083e-06
 Reference value :  3.00158e-06
 Reference value :  3.00242e-06
 Reference value :  3.00290e-06
 Reference value :  3.00390e-06
 Reference value :  3.00484e-06
 Reference value :  3.00593e-06
 Reference value :  3.00758e-06
 Reference value :  3.00841e-06
 Reference value :  3.01016e-06
 Reference value :  3.01191e-06
 Reference value :  3.01357e-06
 Reference value :  3.01535e-06
 Reference value :  3.01634e-06
 Reference value :  3.01913e-06
 Reference value :  3.03051e-06
 Reference value :  3.05625e-06
 Reference value :  3.09138e-06
 Reference value :  3.10622e-06
 Reference value :  3.11983e-06
 Reference value :  3.12590e-06
 Reference value :  3.13892e-06
 Reference value :  3.18154e-06
 Reference value :  3.25011e-06
 Reference value :  3.25020e-06
 Reference value :  3.25026e-06
 Reference value :  3.25069e-06
 Reference value :  3.25140e-06
 Reference value :  3.25229e-06
 Reference value :  3.25299e-06
 Reference value :  3.25345e-06
 Reference value :  3.25461e-06
 Reference value :  3.25741e-06
 Reference value :  3.26522e-06
 Reference value :  3.31555e-06
 Reference value :  3.50000e-06
 Reference value :  3.50003e-06
 Reference value :  3.50011e-06
 Reference value :  3.50016e-06
 Reference value :  3.50052e-06
 Reference value :  3.50119e-06
 Reference value :  3.50201e-06
 Reference value :  3.50290e-06
 Reference value :  3.50399e-06
 Reference value :  3.50553e-06
 Reference value :  3.50616e-06
 Reference value :  3.50771e-06
 Reference value :  3.50956e-06
 Reference value :  3.51251e-06
 Reference value :  3.52999e-06
 Reference value :  3.65804e-06
 Reference value :  3.75011e-06
 Reference value :  3.75017e-06
 Reference value :  3.75022e-06
 Reference value :  3.75045e-06
 Reference value :  3.75140e-06
 Reference value :  3.75299e-06
 Reference value :  3.75344e-06
 Reference value :  3.75448e-06
 Reference value :  3.75579e-06
 Reference value :  3.76027e-06
 Reference value :  3.80729e-06
 Reference value :  4.00000e-06
 Reference value :  4.00007e-06
 Reference value :  4.00012e-06
 Reference value :  4.00034e-06
 Reference value :  4.00083e-06
 Reference value :  4.00158e-06
 Reference value :  4.00242e-06
 Reference value :  4.00341e-06
 Reference value :  4.00450e-06
 Reference value :  4.00554e-06
 Reference value :  4.00847e-06
 Reference value :  4.01120e-06
 Reference value :  4.01323e-06
 Reference value :  4.01524e-06
 Reference value :  4.01913e-06
 Reference value :  4.02797e-06
 Reference value :  4.03757e-06
 Reference value :  4.04522e-06
 Reference value :  4.05362e-06
 Reference value :  4.06417e-06
 Reference value :  4.08850e-06
 Reference value :  4.25010e-06
 Reference value :  4.25017e-06
 Reference value :  4.25026e-06
 Reference value :  4.25069e-06
 Reference value :  4.25140e-06
 Reference value :  4.25299e-06
 Reference value :  4.25395e-06
 Reference value :  4.25595e-06
 Reference value :  4.26148e-06
 Reference value :  4.28577e-06
 Reference value :  4.48009e-06
 Reference value :  4.50003e-06
 Reference value :  4.50010e-06
 Reference value :  4.50016e-06
 Reference value :  4.50034e-06
 Reference value :  4.50083e-06
 Reference value :  4.50154e-06
 Reference value :  4.50235e-06
 Reference value :  4.50282e-06
 Reference value :  4.50388e-06
 Reference value :  4.50536e-06
 Reference value :  4.50598e-06
 Reference value :  4.50749e-06
 Reference value :  4.51028e-06
 Reference value :  4.52228e-06
 Reference value :  4.64495e-06
 Reference value :  4.75013e-06
 Reference value :  4.75022e-06
 Reference value :  4.75045e-06
 Reference value :  4.75140e-06
 Reference value :  4.75299e-06
 Reference value :  4.75397e-06
 Reference value :  4.75502e-06
 Reference value :  4.75661e-06
 Reference value :  4.75964e-06
 Reference value :  4.81987e-06
 Reference value :  5.00003e-06
 Reference value :  5.00016e-06
 Reference value :  5.00083e-06
 Reference value :  5.00201e-06
 Reference value :  5.00342e-06
 Reference value :  5.00440e-06
 Reference value :  5.00534e-06
 Reference value :  5.00758e-06
 Reference value :  5.00928e-06
 Reference value :  5.01015e-06
 Reference value :  5.01190e-06
 Reference value :  5.01354e-06
 Reference value :  5.01532e-06
 Reference value :  5.01730e-06
 Reference value :  5.02983e-06
 Reference value :  5.05596e-06
 Reference value :  5.09317e-06
 Reference value :  5.15792e-06
 Reference value :  5.25010e-06
 Reference value :  5.25017e-06
 Reference value :  5.25022e-06
 Reference value :  5.25045e-06
 Reference value :  5.25098e-06
 Reference value :  5.25186e-06
 Reference value :  5.25299e-06
 Reference value :  5.25396e-06
 Reference value :  5.25601e-06
 Reference value :  5.26177e-06
 Reference value :  5.28749e-06
 Reference value :  5.50000e-06
 Reference value :  5.50007e-06
 Reference value :  5.50012e-06
 Reference value :  5.50022e-06
 Reference value :  5.50052e-06
 Reference value :  5.50119e-06
 Reference value :  5.50154e-06
 Reference value :  5.50235e-06
 Reference value :  5.50282e-06
 Reference value :  5.50389e-06
 Reference value :  5.50536e-06
 Reference value :  5.50598e-06
 Reference value :  5.50749e-06
 Reference value :  5.50924e-06
 Reference value :  5.51143e-06
 Reference value :  5.52222e-06
 Reference value :  5.57976e-06
 Reference value :  5.75011e-06
 Reference value :  5.75017e-06
 Reference value :  5.75022e-06
 Reference value :  5.75045e-06
 Reference value :  5.75098e-06
 Reference value :  5.75186e-06
 Reference value :  5.75299e-06
 Reference value :  5.75344e-06
 Reference value :  5.75448e-06
 Reference value :  5.75579e-06
 Reference value :  5.75749e-06
 Reference value :  5.75962e-06
 Reference value :  5.77470e-06
 Reference value :  5.99635e-06
 Reference value :  6.00003e-06
 Reference value :  6.00012e-06
 Reference value :  6.00034e-06
 Reference value :  6.00119e-06
 Reference value :  6.00201e-06
 Reference value :  6.00290e-06
 Reference value :  6.00390e-06
 Reference value :  6.00484e-06
 Reference value :  6.00593e-06
 Reference value :  6.00758e-06
 Reference value :  6.00933e-06
 Reference value :  6.01016e-06
 Reference value :  6.01188e-06
 Reference value :  6.01348e-06
 Reference value :  6.01524e-06
 Reference value :  6.01721e-06
 Reference value :  6.02037e-06
 Reference value :  6.02739e-06
 Reference value :  6.03461e-06
 Reference value :  6.05723e-06
 Reference value :  6.16297e-06
 Reference value :  6.25011e-06
 Reference value :  6.25020e-06
 Reference value :  6.25026e-06
 Reference value :  6.25045e-06
 Reference value :  6.25098e-06
 Reference value :  6.25140e-06
 Reference value :  6.25229e-06
 Reference value :  6.25344e-06
 Reference value :  6.25462e-06
 Reference value :  6.25601e-06
 Reference value :  6.25897e-06
 Reference value :  6.27278e-06
 Reference value :  6.49307e-06
 Reference value :  6.50003e-06
 Reference value :  6.50010e-06
 Reference value :  6.50012e-06
 Reference value :  6.50034e-06
 Reference value :  6.50083e-06
 Reference value :  6.50154e-06
 Reference value :  6.50282e-06
 Reference value :  6.50388e-06
 Reference value :  6.50536e-06
 Reference value :  6.50598e-06
 Reference value :  6.50749e-06
 Reference value :  6.50924e-06
 Reference value :  6.51143e-06
 Reference value :  6.52218e-06
 Reference value :  6.57945e-06
 Reference value :  6.75011e-06
 Reference value :  6.75020e-06
 Reference value :  6.75032e-06
 Reference value :  6.75098e-06
 Reference value :  6.75186e-06
 Reference value :  6.75299e-06
 Reference value :  6.75344e-06
 Reference value :  6.75447e-06
 Reference value :  6.75579e-06
 Reference value :  6.75834e-06
 Reference value :  6.76731e-06
 Reference value :  6.99638e-06
 Reference value :  7.00007e-06
 Reference value :  7.00022e-06
 Reference value :  7.00119e-06
 Reference value :  7.00242e-06
 Reference value :  7.00390e-06
 Reference value :  7.00534e-06
 Reference value :  7.00758e-06
 Reference value :  7.01016e-06
 Reference value :  7.01180e-06
 Reference value :  7.01433e-06
 Reference value :  7.01725e-06
 Reference value :  7.03008e-06
 Reference value :  7.25010e-06
 Reference value :  7.25020e-06
 Reference value :  7.25032e-06
 Reference value :  7.25098e-06
 Reference value :  7.25186e-06
 Reference value :  7.25299e-06
 Reference value :  7.25396e-06
 Reference value :  7.25601e-06
 Reference value :  7.26175e-06
 Reference value :  7.31661e-06
 Reference value :  7.50001e-06
 Reference value :  7.50010e-06
 Reference value :  7.50022e-06
 Reference value :  7.50083e-06
 Reference value :  7.50154e-06
 Reference value :  7.50282e-06
 Reference value :  7.50389e-06
 Reference value :  7.50536e-06
 Reference value :  7.50664e-06
 Reference value :  7.50839e-06
 Reference value :  7.51028e-06
 Reference value :  7.51667e-06
 Reference value :  7.54743e-06
 Reference value :  7.75011e-06
 Reference value :  7.75020e-06
 Reference value :  7.75032e-06
 Reference value :  7.75098e-06
 Reference value :  7.75186e-06
 Reference value :  7.75298e-06
 Reference value :  7.75344e-06
 Reference value :  7.75447e-06
 Reference value :  7.75578e-06
 Reference value :  7.75832e-06
 Reference value :  7.76357e-06
 Reference value :  7.81779e-06
 Reference value :  8.00001e-06
 Reference value :  8.00010e-06
 Reference value :  8.00016e-06
 Reference value :  8.00052e-06
 Reference value :  8.00119e-06
 Reference value :  8.00201e-06
 Reference value :  8.00290e-06
 Reference value :  8.00389e-06
 Reference value :  8.00484e-06
 Reference value :  8.00663e-06
 Reference value :  8.00902e-06
 Reference value :  8.01376e-06
 Reference value :  8.02462e-06
 Reference value :  8.03410e-06
 Reference value :  8.03765e-06
 Reference value :  8.05038e-06
 Reference value :  8.07712e-06
 Reference value :  8.25010e-06
 Reference value :  8.25020e-06
 Reference value :  8.25032e-06
 Reference value :  8.25099e-06
 Reference value :  8.25228e-06
 Reference value :  8.25452e-06
 Reference value :  8.25768e-06
 Reference value :  8.29148e-06
 Reference value :  8.50003e-06
 Reference value :  8.50012e-06
 Reference value :  8.50035e-06
 Reference value :  8.50135e-06
 Reference value :  8.50283e-06
 Reference value :  8.50392e-06
 Reference value :  8.50489e-06
 Reference value :  8.50885e-06
 Reference value :  8.52170e-06
 Reference value :  8.52573e-06
 Reference value :  8.52867e-06
 Reference value :  8.53378e-06
 Reference value :  8.54357e-06
 Reference value :  8.55502e-06
 Reference value :  8.56298e-06
 Reference value :  8.57768e-06
 Reference value :  8.59750e-06
 Reference value :  8.66113e-06
 Reference value :  8.75011e-06
 Reference value :  8.75020e-06
 Reference value :  8.75032e-06
 Reference value :  8.75098e-06
 Reference value :  8.75185e-06
 Reference value :  8.75297e-06
 Reference value :  8.75340e-06
 Reference value :  8.75452e-06
 Reference value :  8.75730e-06
 Reference value :  8.76477e-06
 Reference value :  8.86529e-06
 Reference value :  9.00003e-06
 Reference value :  9.00011e-06
 Reference value :  9.00022e-06
 Reference value :  9.00083e-06
 Reference value :  9.00154e-06
 Reference value :  9.00281e-06
 Reference value :  9.00462e-06
 Reference value :  9.00643e-06
 Reference value :  9.00878e-06
 Reference value :  9.01121e-06
 Reference value :  9.01367e-06
 Reference value :  9.01712e-06
 Reference value :  9.04815e-06
 Reference value :  9.25013e-06
 Reference value :  9.25026e-06
 Reference value :  9.25098e-06
 Reference value :  9.25186e-06
 Reference value :  9.25298e-06
 Reference value :  9.25343e-06
 Reference value :  9.25446e-06
 Reference value :  9.25576e-06
 Reference value :  9.25820e-06
 Reference value :  9.26347e-06
 Reference value :  9.28381e-06
 Reference value :  9.50000e-06
 Reference value :  9.50010e-06
 Reference value :  9.50022e-06
 Reference value :  9.50083e-06
 Reference value :  9.50158e-06
 Reference value :  9.50242e-06
 Reference value :  9.50342e-06
 Reference value :  9.50440e-06
 Reference value :  9.50484e-06
 Reference value :  9.50593e-06
 Reference value :  9.50759e-06
 Reference value :  9.50928e-06
 Reference value :  9.51015e-06
 Reference value :  9.51192e-06
 Reference value :  9.51359e-06
 Reference value :  9.51538e-06
 Reference value :  9.51750e-06
 Reference value :  9.52473e-06
 Reference value :  9.56461e-06
 Reference value :  9.73163e-06
 Reference value :  9.75013e-06
 Reference value :  9.75021e-06
 Reference value :  9.75032e-06
 Reference value :  9.75098e-06
 Reference value :  9.75186e-06
 Reference value :  9.75299e-06
 Reference value :  9.75396e-06
 Reference value :  9.75601e-06
 Reference value :  9.76544e-06
 Reference value :  9.87567e-06
 Reference value :  1.00000e-05
 Reference value :  1.00001e-05
 Reference value :  1.00002e-05
 Reference value :  1.00008e-05
 Reference value :  1.00015e-05
 Reference value :  1.00028e-05
 Reference value :  1.00046e-05
 Reference value :  1.00060e-05
 Reference value :  1.00075e-05
 Reference value :  1.00103e-05
 Reference value :  1.00167e-05
 Reference value :  1.00474e-05
 Reference value :  1.02501e-05
 Reference value :  1.02501e-05
 Reference value :  1.02502e-05
 Reference value :  1.02503e-05
 Reference value :  1.02507e-05
 Reference value :  1.02514e-05
 Reference value :  1.02530e-05
 Reference value :  1.02534e-05
 Reference value :  1.02545e-05
 Reference value :  1.02558e-05
 Reference value :  1.02583e-05
 Reference value :  1.02610e-05
 Reference value :  1.02747e-05
 Reference value :  1.04970e-05
 Reference value :  1.05000e-05
 Reference value :  1.05001e-05
 Reference value :  1.05002e-05
 Reference value :  1.05005e-05
 Reference value :  1.05008e-05
 Reference value :  1.05016e-05
 Reference value :  1.05024e-05
 Reference value :  1.05029e-05
 Reference value :  1.05039e-05
 Reference value :  1.05048e-05
 Reference value :  1.05059e-05
 Reference value :  1.05076e-05
 Reference value :  1.05084e-05
 Reference value :  1.05093e-05
 Reference value :  1.05102e-05
 Reference value :  1.05119e-05
 Reference value :  1.05136e-05
 Reference value :  1.05154e-05
 Reference value :  1.05175e-05
 Reference value :  1.05210e-05
 Reference value :  1.05422e-05
 Reference value :  1.06406e-05
 Reference value :  1.07501e-05
 Reference value :  1.07502e-05
 Reference value :  1.07503e-05
 Reference value :  1.07507e-05
 Reference value :  1.07514e-05
 Reference value :  1.07530e-05
 Reference value :  1.07540e-05
 Reference value :  1.07560e-05
 Reference value :  1.07618e-05
 Reference value :  1.07875e-05
 Reference value :  1.10000e-05
 Reference value :  1.10001e-05
 Reference value :  1.10001e-05
 Reference value :  1.10003e-05
 Reference value :  1.10008e-05
 Reference value :  1.10015e-05
 Reference value :  1.10023e-05
 Reference value :  1.10028e-05
 Reference value :  1.10039e-05
 Reference value :  1.10060e-05
 Reference value :  1.10075e-05
 Reference value :  1.10103e-05
 Reference value :  1.10315e-05
 Reference value :  1.12501e-05
 Reference value :  1.12502e-05
 Reference value :  1.12507e-05
 Reference value :  1.12514e-05
 Reference value :  1.12530e-05
 Reference value :  1.12545e-05
 Reference value :  1.12566e-05
 Reference value :  1.12610e-05
 Reference value :  1.14971e-05
 Reference value :  1.15001e-05
 Reference value :  1.15003e-05
 Reference value :  1.15012e-05
 Reference value :  1.15024e-05
 Reference value :  1.15039e-05
 Reference value :  1.15053e-05
 Reference value :  1.15076e-05
 Reference value :  1.15102e-05
 Reference value :  1.15119e-05
 Reference value :  1.15145e-05
 Reference value :  1.15165e-05
 Reference value :  1.15214e-05
 Reference value :  1.15469e-05
 Reference value :  1.16017e-05
 Reference value :  1.16156e-05
 Reference value :  1.16213e-05
 Reference value :  1.16337e-05
 Reference value :  1.17252e-05
 Reference value :  1.17501e-05
 Reference value :  1.17502e-05
 Reference value :  1.17503e-05
 Reference value :  1.17507e-05
 Reference value :  1.17514e-05
 Reference value :  1.17523e-05
 Reference value :  1.17530e-05
 Reference value :  1.17535e-05
 Reference value :  1.17546e-05
 Reference value :  1.17560e-05
 Reference value :  1.17589e-05
 Reference value :  1.17724e-05
 Reference value :  1.18727e-05
 Reference value :  1.20000e-05
 Reference value :  1.20001e-05
 Reference value :  1.20001e-05
 Reference value :  1.20002e-05
 Reference value :  1.20005e-05
 Reference value :  1.20012e-05
 Reference value :  1.20020e-05
 Reference value :  1.20029e-05
 Reference value :  1.20040e-05
 Reference value :  1.20055e-05
 Reference value :  1.20062e-05
 Reference value :  1.20077e-05
 Reference value :  1.20096e-05
 Reference value :  1.20205e-05
 Reference value :  1.20832e-05
 Reference value :  1.22501e-05
 Reference value :  1.22502e-05
 Reference value :  1.22503e-05
 Reference value :  1.22510e-05
 Reference value :  1.22519e-05
 Reference value :  1.22530e-05
 Reference value :  1.22540e-05
 Reference value :  1.22550e-05
 Reference value :  1.22566e-05
 Reference value :  1.22698e-05
 Reference value :  1.24559e-05
 Reference value :  1.25001e-05
 Reference value :  1.25001e-05
 Reference value :  1.25002e-05
 Reference value :  1.25008e-05
 Reference value :  1.25016e-05
 Reference value :  1.25024e-05
 Reference value :  1.25029e-05
 Reference value :  1.25040e-05
 Reference value :  1.25050e-05
 Reference value :  1.25063e-05
 Reference value :  1.25085e-05
 Reference value :  1.25112e-05
 Reference value :  1.25132e-05
 Reference value :  1.25152e-05
 Reference value :  1.25191e-05
 Reference value :  1.25240e-05
 Reference value :  1.25389e-05
 Reference value :  1.25484e-05
 Reference value :  1.25628e-05
 Reference value :  1.25738e-05
 Reference value :  1.26219e-05
 Reference value :  1.27501e-05
 Reference value :  1.27502e-05
 Reference value :  1.27504e-05
 Reference value :  1.27514e-05
 Reference value :  1.27530e-05
 Reference value :  1.27546e-05
 Reference value :  1.27573e-05
 Reference value :  1.27719e-05
 Reference value :  1.30000e-05
 Reference value :  1.30001e-05
 Reference value :  1.30002e-05
 Reference value :  1.30005e-05
 Reference value :  1.30012e-05
 Reference value :  1.30019e-05
 Reference value :  1.30028e-05
 Reference value :  1.30039e-05
 Reference value :  1.30060e-05
 Reference value :  1.30075e-05
 Reference value :  1.30103e-05
 Reference value :  1.30167e-05
 Reference value :  1.30474e-05
 Reference value :  1.32501e-05
 Reference value :  1.32502e-05
 Reference value :  1.32503e-05
 Reference value :  1.32504e-05
 Reference value :  1.32510e-05
 Reference value :  1.32519e-05
 Reference value :  1.32530e-05
 Reference value :  1.32534e-05
 Reference value :  1.32545e-05
 Reference value :  1.32558e-05
 Reference value :  1.32575e-05
 Reference value :  1.32596e-05
 Reference value :  1.32674e-05
 Reference value :  1.33198e-05
 Reference value :  1.35000e-05
 Reference value :  1.35001e-05
 Reference value :  1.35002e-05
 Reference value :  1.35008e-05
 Reference value :  1.35020e-05
 Reference value :  1.35034e-05
 Reference value :  1.35048e-05
 Reference value :  1.35066e-05
 Reference value :  1.35076e-05
 Reference value :  1.35093e-05
 Reference value :  1.35102e-05
 Reference value :  1.35119e-05
 Reference value :  1.35135e-05
 Reference value :  1.35163e-05
 Reference value :  1.35242e-05
 Reference value :  1.35497e-05
 Reference value :  1.35757e-05
 Reference value :  1.36810e-05
 Reference value :  1.37501e-05
 Reference value :  1.37502e-05
 Reference value :  1.37507e-05
 Reference value :  1.37519e-05
 Reference value :  1.37534e-05
 Reference value :  1.37560e-05
 Reference value :  1.37728e-05
 Reference value :  1.40000e-05
 Reference value :  1.40001e-05
 Reference value :  1.40003e-05
 Reference value :  1.40015e-05
 Reference value :  1.40028e-05
 Reference value :  1.40046e-05
 Reference value :  1.40060e-05
 Reference value :  1.40075e-05
 Reference value :  1.40103e-05
 Reference value :  1.40221e-05
 Reference value :  1.41423e-05
 Reference value :  1.42502e-05
 Reference value :  1.42503e-05
 Reference value :  1.42510e-05
 Reference value :  1.42519e-05
 Reference value :  1.42530e-05
 Reference value :  1.42540e-05
 Reference value :  1.42550e-05
 Reference value :  1.42575e-05
 Reference value :  1.42610e-05
 Reference value :  1.42895e-05
 Reference value :  1.45000e-05
 Reference value :  1.45001e-05
 Reference value :  1.45002e-05
 Reference value :  1.45008e-05
 Reference value :  1.45020e-05
 Reference value :  1.45029e-05
 Reference value :  1.45039e-05
 Reference value :  1.45048e-05
 Reference value :  1.45066e-05
 Reference value :  1.45093e-05
 Reference value :  1.45102e-05
 Reference value :  1.45119e-05
 Reference value :  1.45135e-05
 Reference value :  1.45163e-05
 Reference value :  1.45236e-05
 Reference value :  1.45347e-05
 Reference value :  1.45769e-05
 Reference value :  1.47501e-05
 Reference value :  1.47502e-05
 Reference value :  1.47504e-05
 Reference value :  1.47514e-05
 Reference value :  1.47530e-05
 Reference value :  1.47546e-05
 Reference value :  1.47590e-05
 Reference value :  1.47875e-05
 Reference value :  1.50000e-05
 Reference value :  1.50001e-05
 Reference value :  1.50002e-05
 Reference value :  1.50008e-05
 Reference value :  1.50015e-05
 Reference value :  1.50028e-05
 Reference value :  1.50039e-05
 Reference value :  1.50060e-05
 Reference value :  1.50075e-05
 Reference value :  1.50103e-05
 Reference value :  1.50316e-05
 Reference value :  1.52501e-05
 Reference value :  1.52502e-05
 Reference value :  1.52507e-05
 Reference value :  1.52519e-05
 Reference value :  1.52534e-05
 Reference value :  1.52545e-05
 Reference value :  1.52558e-05
 Reference value :  1.52583e-05
 Reference value :  1.52610e-05
 Reference value :  1.52895e-05
 Reference value :  1.55001e-05
 Reference value :  1.55001e-05
 Reference value :  1.55007e-05
 Reference value :  1.55019e-05
 Reference value :  1.55033e-05
 Reference value :  1.55046e-05
 Reference value :  1.55062e-05
 Reference value :  1.55090e-05
 Reference value :  1.55109e-05
 Reference value :  1.55139e-05
 Reference value :  1.55157e-05
 Reference value :  1.55243e-05
 Reference value :  1.55841e-05
 Reference value :  1.56096e-05
 Reference value :  1.56865e-05
 Reference value :  1.57501e-05
 Reference value :  1.57503e-05
 Reference value :  1.57507e-05
 Reference value :  1.57514e-05
 Reference value :  1.57530e-05
 Reference value :  1.57540e-05
 Reference value :  1.57552e-05
 Reference value :  1.57615e-05
 Reference value :  1.58139e-05
 Reference value :  1.60000e-05
 Reference value :  1.60001e-05
 Reference value :  1.60003e-05
 Reference value :  1.60012e-05
 Reference value :  1.60020e-05
 Reference value :  1.60029e-05
 Reference value :  1.60047e-05
 Reference value :  1.60062e-05
 Reference value :  1.60077e-05
 Reference value :  1.60109e-05
 Reference value :  1.60204e-05
 Reference value :  1.60816e-05
 Reference value :  1.62501e-05
 Reference value :  1.62502e-05
 Reference value :  1.62503e-05
 Reference value :  1.62510e-05
 Reference value :  1.62519e-05
 Reference value :  1.62530e-05
 Reference value :  1.62540e-05
 Reference value :  1.62550e-05
 Reference value :  1.62566e-05
 Reference value :  1.62635e-05
 Reference value :  1.63064e-05
 Reference value :  1.65000e-05
 Reference value :  1.65001e-05
 Reference value :  1.65001e-05
 Reference value :  1.65003e-05
 Reference value :  1.65012e-05
 Reference value :  1.65020e-05
 Reference value :  1.65029e-05
 Reference value :  1.65040e-05
 Reference value :  1.65050e-05
 Reference value :  1.65064e-05
 Reference value :  1.65088e-05
 Reference value :  1.65226e-05
 Reference value :  1.66207e-05
 Reference value :  1.67501e-05
 Reference value :  1.67502e-05
 Reference value :  1.67504e-05
 Reference value :  1.67514e-05
 Reference value :  1.67530e-05
 Reference value :  1.67553e-05
 Reference value :  1.67577e-05
 Reference value :  1.67749e-05
 Reference value :  1.68821e-05
 Reference value :  1.70021e-05
 Reference value :  1.70086e-05
 Reference value :  1.70132e-05
 Reference value :  1.70189e-05
 Reference value :  1.70224e-05
 Reference value :  1.70250e-05
 Reference value :  1.70271e-05
 Reference value :  1.70306e-05
 Reference value :  1.70331e-05
 Reference value :  1.70380e-05
 Reference value :  1.70458e-05
 Reference value :  1.70530e-05
 Reference value :  1.70659e-05
 Reference value :  1.70756e-05
 Reference value :  1.70987e-05
 Reference value :  1.71647e-05
 Reference value :  1.72501e-05
 Reference value :  1.72502e-05
 Reference value :  1.72503e-05
 Reference value :  1.72510e-05
 Reference value :  1.72518e-05
 Reference value :  1.72532e-05
 Reference value :  1.72542e-05
 Reference value :  1.72554e-05
 Reference value :  1.72594e-05
 Reference value :  1.72890e-05
 Reference value :  1.74853e-05
 Reference value :  1.75001e-05
 Reference value :  1.75001e-05
 Reference value :  1.75003e-05
 Reference value :  1.75008e-05
 Reference value :  1.75015e-05
 Reference value :  1.75028e-05
 Reference value :  1.75046e-05
 Reference value :  1.75064e-05
 Reference value :  1.75088e-05
 Reference value :  1.75112e-05
 Reference value :  1.75137e-05
 Reference value :  1.75171e-05
 Reference value :  1.75203e-05
 Reference value :  1.75786e-05
 Reference value :  1.77501e-05
 Reference value :  1.77502e-05
 Reference value :  1.77503e-05
 Reference value :  1.77507e-05
 Reference value :  1.77514e-05
 Reference value :  1.77523e-05
 Reference value :  1.77534e-05
 Reference value :  1.77545e-05
 Reference value :  1.77558e-05
 Reference value :  1.77574e-05
 Reference value :  1.77595e-05
 Reference value :  1.77738e-05
 Reference value :  1.79794e-05
 Reference value :  1.80004e-05
 Reference value :  1.80014e-05
 Reference value :  1.80028e-05
 Reference value :  1.80038e-05
 Reference value :  1.80048e-05
 Reference value :  1.80066e-05
 Reference value :  1.80084e-05
 Reference value :  1.80101e-05
 Reference value :  1.80119e-05
 Reference value :  1.80135e-05
 Reference value :  1.80152e-05
 Reference value :  1.80188e-05
 Reference value :  1.80381e-05
 Reference value :  1.82116e-05
 Reference value :  1.82501e-05
 Reference value :  1.82502e-05
 Reference value :  1.82504e-05
 Reference value :  1.82514e-05
 Reference value :  1.82523e-05
 Reference value :  1.82534e-05
 Reference value :  1.82553e-05
 Reference value :  1.82590e-05
 Reference value :  1.82875e-05
 Reference value :  1.84934e-05
 Reference value :  1.85001e-05
 Reference value :  1.85001e-05
 Reference value :  1.85003e-05
 Reference value :  1.85008e-05
 Reference value :  1.85015e-05
 Reference value :  1.85023e-05
 Reference value :  1.85033e-05
 Reference value :  1.85046e-05
 Reference value :  1.85060e-05
 Reference value :  1.85075e-05
 Reference value :  1.85092e-05
 Reference value :  1.85114e-05
 Reference value :  1.85315e-05
 Reference value :  1.86422e-05
 Reference value :  1.87501e-05
 Reference value :  1.87502e-05
 Reference value :  1.87503e-05
 Reference value :  1.87507e-05
 Reference value :  1.87514e-05
 Reference value :  1.87523e-05
 Reference value :  1.87534e-05
 Reference value :  1.87545e-05
 Reference value :  1.87558e-05
 Reference value :  1.87584e-05
 Reference value :  1.87610e-05
 Reference value :  1.87897e-05
 Reference value :  1.90000e-05
 Reference value :  1.90001e-05
 Reference value :  1.90002e-05
 Reference value :  1.90005e-05
 Reference value :  1.90012e-05
 Reference value :  1.90016e-05
 Reference value :  1.90024e-05
 Reference value :  1.90029e-05
 Reference value :  1.90039e-05
 Reference value :  1.90048e-05
 Reference value :  1.90059e-05
 Reference value :  1.90076e-05
 Reference value :  1.90093e-05
 Reference value :  1.90102e-05
 Reference value :  1.90119e-05
 Reference value :  1.90136e-05
 Reference value :  1.90154e-05
 Reference value :  1.90175e-05
 Reference value :  1.90247e-05
 Reference value :  1.90638e-05
 Reference value :  1.92360e-05
 Reference value :  1.92501e-05
 Reference value :  1.92502e-05
 Reference value :  1.92504e-05
 Reference value :  1.92510e-05
 Reference value :  1.92519e-05
 Reference value :  1.92530e-05
 Reference value :  1.92540e-05
 Reference value :  1.92560e-05
 Reference value :  1.92618e-05
 Reference value :  1.92875e-05
 Reference value :  1.94870e-05
 Reference value :  1.95002e-05
 Reference value :  1.95009e-05
 Reference value :  1.95015e-05
 Reference value :  1.95023e-05
 Reference value :  1.95033e-05
 Reference value :  1.95046e-05
 Reference value :  1.95060e-05
 Reference value :  1.95075e-05
 Reference value :  1.95092e-05
 Reference value :  1.95114e-05
 Reference value :  1.95218e-05
 Reference value :  1.95954e-05
 Reference value :  1.97501e-05
 Reference value :  1.97502e-05
 Reference value :  1.97503e-05
 Reference value :  1.97510e-05
 Reference value :  1.97519e-05
 Reference value :  1.97530e-05
 Reference value :  1.97534e-05
 Reference value :  1.97545e-05
 Reference value :  1.97558e-05
 Reference value :  1.97583e-05
 Reference value :  1.97610e-05
 Reference value :  1.97896e-05
 Reference value :  2.00000e-05
 Reference value :  2.00001e-05
 Reference value :  2.00001e-05
 Reference value :  2.00003e-05
 Reference value :  2.00012e-05
 Reference value :  2.00020e-05
 Reference value :  2.00029e-05
 Reference value :  2.00039e-05
 Reference value :  2.00053e-05
 Reference value :  2.00076e-05
 Reference value :  2.00093e-05
 Reference value :  2.00111e-05
 Reference value :  2.00136e-05
 Reference value :  2.00164e-05
 Reference value :  2.00246e-05
 Reference value :  2.00620e-05
 Reference value :  2.00961e-05
 Reference value :  2.01094e-05
 Reference value :  2.01150e-05
 Reference value :  2.01269e-05
 Reference value :  2.02501e-05
 Reference value :  2.02502e-05
 Reference value :  2.02503e-05
 Reference value :  2.02510e-05
 Reference value :  2.02523e-05
 Reference value :  2.02535e-05
 Reference value :  2.02546e-05
 Reference value :  2.02589e-05
 Reference value :  2.02867e-05
 Reference value :  2.05000e-05
 Reference value :  2.05002e-05
 Reference value :  2.05009e-05
 Reference value :  2.05015e-05
 Reference value :  2.05028e-05
 Reference value :  2.05047e-05
 Reference value :  2.05063e-05
 Reference value :  2.05077e-05
 Reference value :  2.05096e-05
 Reference value :  2.05166e-05
 Reference value :  2.05601e-05
 Reference value :  2.07501e-05
 Reference value :  2.07502e-05
 Reference value :  2.07502e-05
 Reference value :  2.07503e-05
 Reference value :  2.07507e-05
 Reference value :  2.07514e-05
 Reference value :  2.07523e-05
 Reference value :  2.07534e-05
 Reference value :  2.07545e-05
 Reference value :  2.07558e-05
 Reference value :  2.07603e-05
 Reference value :  2.07822e-05
 Reference value :  2.09557e-05
 Reference value :  2.10000e-05
 Reference value :  2.10001e-05
 Reference value :  2.10002e-05
 Reference value :  2.10003e-05
 Reference value :  2.10008e-05
 Reference value :  2.10016e-05
 Reference value :  2.10029e-05
 Reference value :  2.10040e-05
 Reference value :  2.10050e-05
 Reference value :  2.10071e-05
 Reference value :  2.10100e-05
 Reference value :  2.10112e-05
 Reference value :  2.10122e-05
 Reference value :  2.10143e-05
 Reference value :  2.10163e-05
 Reference value :  2.10191e-05
 Reference value :  2.10289e-05
 Reference value :  2.10414e-05
 Reference value :  2.10468e-05
 Reference value :  2.10567e-05
 Reference value :  2.10680e-05
 Reference value :  2.10885e-05
 Reference value :  2.11280e-05
 Reference value :  2.12501e-05
 Reference value :  2.12502e-05
 Reference value :  2.12503e-05
 Reference value :  2.12510e-05
 Reference value :  2.12519e-05
 Reference value :  2.12530e-05
 Reference value :  2.12539e-05
 Reference value :  2.12553e-05
 Reference value :  2.12588e-05
 Reference value :  2.12719e-05
 Reference value :  2.13688e-05
 Reference value :  2.15000e-05
 Reference value :  2.15001e-05
 Reference value :  2.15002e-05
 Reference value :  2.15003e-05
 Reference value :  2.15008e-05
 Reference value :  2.15015e-05
 Reference value :  2.15023e-05
 Reference value :  2.15028e-05
 Reference value :  2.15039e-05
 Reference value :  2.15054e-05
 Reference value :  2.15060e-05
 Reference value :  2.15075e-05
 Reference value :  2.15103e-05
 Reference value :  2.15221e-05
 Reference value :  2.17501e-05
 Reference value :  2.17502e-05
 Reference value :  2.17503e-05
 Reference value :  2.17507e-05
 Reference value :  2.17514e-05
 Reference value :  2.17530e-05
 Reference value :  2.17540e-05
 Reference value :  2.17550e-05
 Reference value :  2.17566e-05
 Reference value :  2.17596e-05
 Reference value :  2.17749e-05
 Reference value :  2.19996e-05
 Reference value :  2.20000e-05
 Reference value :  2.20001e-05
 Reference value :  2.20002e-05
 Reference value :  2.20003e-05
 Reference value :  2.20008e-05
 Reference value :  2.20016e-05
 Reference value :  2.20024e-05
 Reference value :  2.20029e-05
 Reference value :  2.20039e-05
 Reference value :  2.20049e-05
 Reference value :  2.20067e-05
 Reference value :  2.20084e-05
 Reference value :  2.20101e-05
 Reference value :  2.20128e-05
 Reference value :  2.20137e-05
 Reference value :  2.20166e-05
 Reference value :  2.20350e-05
 Reference value :  2.20669e-05
 Reference value :  2.22091e-05
 Reference value :  2.22502e-05
 Reference value :  2.22503e-05
 Reference value :  2.22507e-05
 Reference value :  2.22514e-05
 Reference value :  2.22530e-05
 Reference value :  2.22540e-05
 Reference value :  2.22560e-05
 Reference value :  2.22654e-05
 Reference value :  2.24929e-05
 Reference value :  2.25001e-05
 Reference value :  2.25002e-05
 Reference value :  2.25005e-05
 Reference value :  2.25015e-05
 Reference value :  2.25028e-05
 Reference value :  2.25046e-05
 Reference value :  2.25060e-05
 Reference value :  2.25075e-05
 Reference value :  2.25103e-05
 Reference value :  2.25221e-05
 Reference value :  2.27501e-05
 Reference value :  2.27502e-05
 Reference value :  2.27503e-05
 Reference value :  2.27510e-05
 Reference value :  2.27519e-05
 Reference value :  2.27534e-05
 Reference value :  2.27550e-05
 Reference value :  2.27575e-05
 Reference value :  2.27636e-05
 Reference value :  2.30000e-05
 Reference value :  2.30001e-05
 Reference value :  2.30004e-05
 Reference value :  2.30010e-05
 Reference value :  2.30017e-05
 Reference value :  2.30026e-05
 Reference value :  2.30035e-05
 Reference value :  2.30045e-05
 Reference value :  2.30064e-05
 Reference value :  2.30083e-05
 Reference value :  2.30093e-05
 Reference value :  2.30112e-05
 Reference value :  2.30120e-05
 Reference value :  2.30138e-05
 Reference value :  2.30168e-05
 Reference value :  2.30222e-05
 Reference value :  2.30345e-05
 Reference value :  2.30758e-05
 Reference value :  2.31976e-05
 Reference value :  2.32501e-05
 Reference value :  2.32502e-05
 Reference value :  2.32503e-05
 Reference value :  2.32510e-05
 Reference value :  2.32519e-05
 Reference value :  2.32530e-05
 Reference value :  2.32539e-05
 Reference value :  2.32575e-05
 Reference value :  2.32873e-05
 Reference value :  2.35000e-05
 Reference value :  2.35001e-05
 Reference value :  2.35003e-05
 Reference value :  2.35012e-05
 Reference value :  2.35019e-05
 Reference value :  2.35028e-05
 Reference value :  2.35046e-05
 Reference value :  2.35060e-05
 Reference value :  2.35075e-05
 Reference value :  2.35103e-05
 Reference value :  2.35221e-05
 Reference value :  2.37501e-05
 Reference value :  2.37502e-05
 Reference value :  2.37503e-05
 Reference value :  2.37507e-05
 Reference value :  2.37514e-05
 Reference value :  2.37530e-05
 Reference value :  2.37540e-05
 Reference value :  2.37558e-05
 Reference value :  2.37584e-05
 Reference value :  2.37674e-05
 Reference value :  2.38809e-05
 Reference value :  2.40001e-05
 Reference value :  2.40002e-05
 Reference value :  2.40005e-05
 Reference value :  2.40012e-05
 Reference value :  2.40020e-05
 Reference value :  2.40029e-05
 Reference value :  2.40039e-05
 Reference value :  2.40053e-05
 Reference value :  2.40076e-05
 Reference value :  2.40102e-05
 Reference value :  2.40118e-05
 Reference value :  2.40153e-05
 Reference value :  2.40185e-05
 Reference value :  2.40289e-05
 Reference value :  2.40843e-05
 Reference value :  2.42502e-05
 Reference value :  2.42503e-05
 Reference value :  2.42514e-05
 Reference value :  2.42530e-05
 Reference value :  2.42546e-05
 Reference value :  2.42589e-05
 Reference value :  2.43153e-05
 Reference value :  2.45000e-05
 Reference value :  2.45001e-05
 Reference value :  2.45003e-05
 Reference value :  2.45012e-05
 Reference value :  2.45024e-05
 Reference value :  2.45034e-05
 Reference value :  2.45055e-05
 Reference value :  2.45069e-05
 Reference value :  2.45086e-05
 Reference value :  2.45205e-05
 Reference value :  2.47501e-05
 Reference value :  2.47502e-05
 Reference value :  2.47504e-05
 Reference value :  2.47514e-05
 Reference value :  2.47530e-05
 Reference value :  2.47540e-05
 Reference value :  2.47558e-05
 Reference value :  2.47821e-05
 Reference value :  2.50000e-05
 Reference value :  2.50002e-05
 Reference value :  2.50008e-05
 Reference value :  2.50016e-05
 Reference value :  2.50029e-05
 Reference value :  2.50045e-05
 Reference value :  2.50056e-05
 Reference value :  2.50079e-05
 Reference value :  2.50156e-05
 Reference value :  2.52327e-05
 Reference value :  2.52502e-05
 Reference value :  2.52503e-05
 Reference value :  2.52514e-05
 Reference value :  2.52530e-05
 Reference value :  2.52553e-05
 Reference value :  2.52592e-05
 Reference value :  2.53821e-05
 Reference value :  2.55021e-05
 Reference value :  2.55086e-05
 Reference value :  2.55189e-05
 Reference value :  2.55224e-05
 Reference value :  2.55250e-05
 Reference value :  2.55290e-05
 Reference value :  2.55318e-05
 Reference value :  2.55356e-05
 Reference value :  2.55395e-05
 Reference value :  2.55535e-05
 Reference value :  2.55675e-05
 Reference value :  2.55777e-05
 Reference value :  2.55962e-05
 Reference value :  2.56365e-05
 Reference value :  2.57501e-05
 Reference value :  2.57502e-05
 Reference value :  2.57504e-05
 Reference value :  2.57514e-05
 Reference value :  2.57518e-05
 Reference value :  2.57528e-05
 Reference value :  2.57537e-05
 Reference value :  2.57547e-05
 Reference value :  2.57562e-05
 Reference value :  2.57665e-05
 Reference value :  2.58734e-05
 Reference value :  2.60000e-05
 Reference value :  2.60001e-05
 Reference value :  2.60002e-05
 Reference value :  2.60005e-05
 Reference value :  2.60012e-05
 Reference value :  2.60019e-05
 Reference value :  2.60028e-05
 Reference value :  2.60046e-05
 Reference value :  2.60064e-05
 Reference value :  2.60088e-05
 Reference value :  2.60112e-05
 Reference value :  2.60124e-05
 Reference value :  2.60154e-05
 Reference value :  2.60203e-05
 Reference value :  2.60333e-05
 Reference value :  2.61381e-05
 Reference value :  2.62501e-05
 Reference value :  2.62502e-05
 Reference value :  2.62503e-05
 Reference value :  2.62507e-05
 Reference value :  2.62514e-05
 Reference value :  2.62530e-05
 Reference value :  2.62540e-05
 Reference value :  2.62558e-05
 Reference value :  2.62595e-05
 Reference value :  2.62738e-05
 Reference value :  2.64797e-05
 Reference value :  2.65004e-05
 Reference value :  2.65014e-05
 Reference value :  2.65028e-05
 Reference value :  2.65043e-05
 Reference value :  2.65058e-05
 Reference value :  2.65084e-05
 Reference value :  2.65103e-05
 Reference value :  2.65127e-05
 Reference value :  2.65144e-05
 Reference value :  2.65173e-05
 Reference value :  2.65420e-05
 Reference value :  2.67285e-05
 Reference value :  2.67502e-05
 Reference value :  2.67503e-05
 Reference value :  2.67514e-05
 Reference value :  2.67530e-05
 Reference value :  2.67540e-05
 Reference value :  2.67560e-05
 Reference value :  2.67655e-05
 Reference value :  2.68762e-05
 Reference value :  2.70000e-05
 Reference value :  2.70002e-05
 Reference value :  2.70008e-05
 Reference value :  2.70019e-05
 Reference value :  2.70033e-05
 Reference value :  2.70054e-05
 Reference value :  2.70066e-05
 Reference value :  2.70084e-05
 Reference value :  2.70114e-05
 Reference value :  2.70473e-05
 Reference value :  2.72501e-05
 Reference value :  2.72502e-05
 Reference value :  2.72504e-05
 Reference value :  2.72514e-05
 Reference value :  2.72530e-05
 Reference value :  2.72540e-05
 Reference value :  2.72550e-05
 Reference value :  2.72566e-05
 Reference value :  2.72596e-05
 Reference value :  2.72901e-05
 Reference value :  2.75000e-05
 Reference value :  2.75001e-05
 Reference value :  2.75002e-05
 Reference value :  2.75008e-05
 Reference value :  2.75016e-05
 Reference value :  2.75029e-05
 Reference value :  2.75039e-05
 Reference value :  2.75048e-05
 Reference value :  2.75066e-05
 Reference value :  2.75084e-05
 Reference value :  2.75102e-05
 Reference value :  2.75127e-05
 Reference value :  2.75145e-05
 Reference value :  2.75175e-05
 Reference value :  2.75423e-05
 Reference value :  2.77501e-05
 Reference value :  2.77502e-05
 Reference value :  2.77504e-05
 Reference value :  2.77514e-05
 Reference value :  2.77530e-05
 Reference value :  2.77540e-05
 Reference value :  2.77560e-05
 Reference value :  2.77654e-05
 Reference value :  2.78756e-05
 Reference value :  2.80002e-05
 Reference value :  2.80009e-05
 Reference value :  2.80015e-05
 Reference value :  2.80028e-05
 Reference value :  2.80046e-05
 Reference value :  2.80060e-05
 Reference value :  2.80083e-05
 Reference value :  2.80113e-05
 Reference value :  2.80325e-05
 Reference value :  2.82501e-05
 Reference value :  2.82502e-05
 Reference value :  2.82503e-05
 Reference value :  2.82510e-05
 Reference value :  2.82519e-05
 Reference value :  2.82534e-05
 Reference value :  2.82550e-05
 Reference value :  2.82566e-05
 Reference value :  2.82596e-05
 Reference value :  2.82896e-05
 Reference value :  2.85000e-05
 Reference value :  2.85001e-05
 Reference value :  2.85003e-05
 Reference value :  2.85012e-05
 Reference value :  2.85024e-05
 Reference value :  2.85034e-05
 Reference value :  2.85044e-05
 Reference value :  2.85053e-05
 Reference value :  2.85076e-05
 Reference value :  2.85093e-05
 Reference value :  2.85102e-05
 Reference value :  2.85119e-05
 Reference value :  2.85136e-05
 Reference value :  2.85164e-05
 Reference value :  2.85246e-05
 Reference value :  2.85796e-05
 Reference value :  2.85942e-05
 Reference value :  2.86046e-05
 Reference value :  2.86221e-05
 Reference value :  2.87063e-05
 Reference value :  2.87501e-05
 Reference value :  2.87503e-05
 Reference value :  2.87510e-05
 Reference value :  2.87519e-05
 Reference value :  2.87535e-05
 Reference value :  2.87552e-05
 Reference value :  2.87616e-05
 Reference value :  2.88726e-05
 Reference value :  2.90002e-05
 Reference value :  2.90009e-05
 Reference value :  2.90019e-05
 Reference value :  2.90028e-05
 Reference value :  2.90039e-05
 Reference value :  2.90062e-05
 Reference value :  2.90077e-05
 Reference value :  2.90107e-05
 Reference value :  2.90302e-05
 Reference value :  2.92501e-05
 Reference value :  2.92502e-05
 Reference value :  2.92502e-05
 Reference value :  2.92507e-05
 Reference value :  2.92514e-05
 Reference value :  2.92530e-05
 Reference value :  2.92540e-05
 Reference value :  2.92558e-05
 Reference value :  2.92698e-05
 Reference value :  2.95000e-05
 Reference value :  2.95001e-05
 Reference value :  2.95002e-05
 Reference value :  2.95008e-05
 Reference value :  2.95016e-05
 Reference value :  2.95029e-05
 Reference value :  2.95040e-05
 Reference value :  2.95050e-05
 Reference value :  2.95071e-05
 Reference value :  2.95112e-05
 Reference value :  2.95132e-05
 Reference value :  2.95152e-05
 Reference value :  2.95191e-05
 Reference value :  2.95350e-05
 Reference value :  2.95467e-05
 Reference value :  2.95573e-05
 Reference value :  2.95734e-05
 Reference value :  2.96083e-05
 Reference value :  2.97501e-05
 Reference value :  2.97502e-05
 Reference value :  2.97503e-05
 Reference value :  2.97507e-05
 Reference value :  2.97514e-05
 Reference value :  2.97530e-05
 Reference value :  2.97539e-05
 Reference value :  2.97559e-05
 Reference value :  2.97649e-05
 Reference value :  2.98687e-05
 Reference value :  3.00000e-05
 Reference value :  3.00001e-05
 Reference value :  3.00003e-05
 Reference value :  3.00012e-05
 Reference value :  3.00023e-05
 Reference value :  3.00033e-05
 Reference value :  3.00054e-05
 Reference value :  3.00066e-05
 Reference value :  3.00084e-05
 Reference value :  3.00114e-05
 Reference value :  3.00474e-05
 Reference value :  3.02501e-05
 Reference value :  3.02503e-05
 Reference value :  3.02510e-05
 Reference value :  3.02523e-05
 Reference value :  3.02534e-05
 Reference value :  3.02550e-05
 Reference value :  3.02575e-05
 Reference value :  3.02610e-05
 Reference value :  3.03198e-05
 Reference value :  3.05000e-05
 Reference value :  3.05002e-05
 Reference value :  3.05008e-05
 Reference value :  3.05020e-05
 Reference value :  3.05034e-05
 Reference value :  3.05049e-05
 Reference value :  3.05067e-05
 Reference value :  3.05084e-05
 Reference value :  3.05101e-05
 Reference value :  3.05119e-05
 Reference value :  3.05136e-05
 Reference value :  3.05154e-05
 Reference value :  3.05174e-05
 Reference value :  3.05245e-05
 Reference value :  3.05408e-05
 Reference value :  3.05564e-05
 Reference value :  3.05903e-05
 Reference value :  3.06945e-05
 Reference value :  3.07501e-05
 Reference value :  3.07502e-05
 Reference value :  3.07503e-05
 Reference value :  3.07510e-05
 Reference value :  3.07519e-05
 Reference value :  3.07534e-05
 Reference value :  3.07553e-05
 Reference value :  3.07618e-05
 Reference value :  3.08168e-05
 Reference value :  3.10000e-05
 Reference value :  3.10001e-05
 Reference value :  3.10002e-05
 Reference value :  3.10005e-05
 Reference value :  3.10012e-05
 Reference value :  3.10019e-05
 Reference value :  3.10028e-05
 Reference value :  3.10039e-05
 Reference value :  3.10054e-05
 Reference value :  3.10060e-05
 Reference value :  3.10075e-05
 Reference value :  3.10103e-05
 Reference value :  3.10315e-05
 Reference value :  3.12501e-05
 Reference value :  3.12502e-05
 Reference value :  3.12503e-05
 Reference value :  3.12510e-05
 Reference value :  3.12519e-05
 Reference value :  3.12530e-05
 Reference value :  3.12540e-05
 Reference value :  3.12550e-05
 Reference value :  3.12566e-05
 Reference value :  3.12583e-05
 Reference value :  3.12610e-05
 Reference value :  3.12746e-05
 Reference value :  3.13775e-05
 Reference value :  3.15000e-05
 Reference value :  3.15001e-05
 Reference value :  3.15002e-05
 Reference value :  3.15008e-05
 Reference value :  3.15016e-05
 Reference value :  3.15024e-05
 Reference value :  3.15034e-05
 Reference value :  3.15044e-05
 Reference value :  3.15053e-05
 Reference value :  3.15076e-05
 Reference value :  3.15093e-05
 Reference value :  3.15102e-05
 Reference value :  3.15119e-05
 Reference value :  3.15135e-05
 Reference value :  3.15163e-05
 Reference value :  3.15188e-05
 Reference value :  3.15275e-05
 Reference value :  3.15347e-05
 Reference value :  3.15576e-05
 Reference value :  3.15684e-05
 Reference value :  3.15820e-05
 Reference value :  3.15910e-05
 Reference value :  3.16124e-05
 Reference value :  3.16650e-05
 Reference value :  3.17501e-05
 Reference value :  3.17502e-05
 Reference value :  3.17502e-05
 Reference value :  3.17504e-05
 Reference value :  3.17510e-05
 Reference value :  3.17519e-05
 Reference value :  3.17530e-05
 Reference value :  3.17535e-05
 Reference value :  3.17546e-05
 Reference value :  3.17574e-05
 Reference value :  3.17652e-05
 Reference value :  3.18724e-05
 Reference value :  3.20000e-05
 Reference value :  3.20001e-05
 Reference value :  3.20002e-05
 Reference value :  3.20003e-05
 Reference value :  3.20008e-05
 Reference value :  3.20016e-05
 Reference value :  3.20029e-05
 Reference value :  3.20040e-05
 Reference value :  3.20062e-05
 Reference value :  3.20077e-05
 Reference value :  3.20109e-05
 Reference value :  3.20295e-05
 Reference value :  3.22501e-05
 Reference value :  3.22502e-05
 Reference value :  3.22503e-05
 Reference value :  3.22510e-05
 Reference value :  3.22519e-05
 Reference value :  3.22530e-05
 Reference value :  3.22534e-05
 Reference value :  3.22545e-05
 Reference value :  3.22558e-05
 Reference value :  3.22636e-05
 Reference value :  3.23072e-05
 Reference value :  3.25000e-05
 Reference value :  3.25001e-05
 Reference value :  3.25002e-05
 Reference value :  3.25005e-05
 Reference value :  3.25012e-05
 Reference value :  3.25020e-05
 Reference value :  3.25029e-05
 Reference value :  3.25045e-05
 Reference value :  3.25055e-05
 Reference value :  3.25085e-05
 Reference value :  3.25112e-05
 Reference value :  3.25132e-05
 Reference value :  3.25152e-05
 Reference value :  3.25191e-05
 Reference value :  3.25364e-05
 Reference value :  3.25982e-05
 Reference value :  3.26558e-05
 Reference value :  3.26764e-05
 Reference value :  3.27268e-05
 Reference value :  3.27501e-05
 Reference value :  3.27502e-05
 Reference value :  3.27504e-05
 Reference value :  3.27514e-05
 Reference value :  3.27530e-05
 Reference value :  3.27539e-05
 Reference value :  3.27559e-05
 Reference value :  3.27649e-05
 Reference value :  3.28417e-05
 Reference value :  3.30000e-05
 Reference value :  3.30001e-05
 Reference value :  3.30003e-05
 Reference value :  3.30012e-05
 Reference value :  3.30019e-05
 Reference value :  3.30028e-05
 Reference value :  3.30046e-05
 Reference value :  3.30060e-05
 Reference value :  3.30075e-05
 Reference value :  3.30103e-05
 Reference value :  3.30315e-05
 Reference value :  3.32501e-05
 Reference value :  3.32502e-05
 Reference value :  3.32503e-05
 Reference value :  3.32507e-05
 Reference value :  3.32514e-05
 Reference value :  3.32530e-05
 Reference value :  3.32540e-05
 Reference value :  3.32550e-05
 Reference value :  3.32566e-05
 Reference value :  3.32596e-05
 Reference value :  3.32747e-05
 Reference value :  3.34964e-05
 Reference value :  3.35001e-05
 Reference value :  3.35001e-05
 Reference value :  3.35004e-05
 Reference value :  3.35011e-05
 Reference value :  3.35019e-05
 Reference value :  3.35028e-05
 Reference value :  3.35038e-05
 Reference value :  3.35047e-05
 Reference value :  3.35064e-05
 Reference value :  3.35084e-05
 Reference value :  3.35108e-05
 Reference value :  3.35145e-05
 Reference value :  3.35321e-05
 Reference value :  3.35504e-05
 Reference value :  3.35573e-05
 Reference value :  3.35805e-05
 Reference value :  3.36550e-05
 Reference value :  3.37502e-05
 Reference value :  3.37503e-05
 Reference value :  3.37507e-05
 Reference value :  3.37514e-05
 Reference value :  3.37523e-05
 Reference value :  3.37536e-05
 Reference value :  3.37553e-05
 Reference value :  3.37592e-05
 Reference value :  3.38831e-05
 Reference value :  3.40001e-05
 Reference value :  3.40002e-05
 Reference value :  3.40009e-05
 Reference value :  3.40023e-05
 Reference value :  3.40034e-05
 Reference value :  3.40044e-05
 Reference value :  3.40074e-05
 Reference value :  3.40217e-05
 Reference value :  3.40258e-05
 Reference value :  3.40316e-05
 Reference value :  3.40352e-05
 Reference value :  3.40425e-05
 Reference value :  3.40565e-05
 Reference value :  3.40673e-05
 Reference value :  3.40827e-05
 Reference value :  3.41218e-05
 Reference value :  3.42501e-05
 Reference value :  3.42503e-05
 Reference value :  3.42510e-05
 Reference value :  3.42523e-05
 Reference value :  3.42534e-05
 Reference value :  3.42552e-05
 Reference value :  3.42647e-05
 Reference value :  3.44700e-05
 Reference value :  3.45001e-05
 Reference value :  3.45003e-05
 Reference value :  3.45012e-05
 Reference value :  3.45019e-05
 Reference value :  3.45033e-05
 Reference value :  3.45064e-05
 Reference value :  3.45099e-05
 Reference value :  3.45124e-05
 Reference value :  3.45254e-05
 Reference value :  3.47501e-05
 Reference value :  3.47502e-05
 Reference value :  3.47507e-05
 Reference value :  3.47519e-05
 Reference value :  3.47534e-05
 Reference value :  3.47558e-05
 Reference value :  3.47596e-05
 Reference value :  3.48055e-05
 Reference value :  3.50000e-05
 Reference value :  3.50001e-05
 Reference value :  3.50003e-05
 Reference value :  3.50012e-05
 Reference value :  3.50020e-05
 Reference value :  3.50029e-05
 Reference value :  3.50044e-05
 Reference value :  3.50053e-05
 Reference value :  3.50076e-05
 Reference value :  3.50093e-05
 Reference value :  3.50102e-05
 Reference value :  3.50119e-05
 Reference value :  3.50136e-05
 Reference value :  3.50164e-05
 Reference value :  3.50317e-05
 Reference value :  3.52317e-05
 Reference value :  3.52502e-05
 Reference value :  3.52504e-05
 Reference value :  3.52514e-05
 Reference value :  3.52523e-05
 Reference value :  3.52534e-05
 Reference value :  3.52546e-05
 Reference value :  3.52575e-05
 Reference value :  3.52728e-05
 Reference value :  3.53757e-05
 Reference value :  3.55000e-05
 Reference value :  3.55001e-05
 Reference value :  3.55003e-05
 Reference value :  3.55008e-05
 Reference value :  3.55015e-05
 Reference value :  3.55028e-05
 Reference value :  3.55046e-05
 Reference value :  3.55060e-05
 Reference value :  3.55075e-05
 Reference value :  3.55103e-05
 Reference value :  3.55315e-05
 Reference value :  3.57501e-05
 Reference value :  3.57502e-05
 Reference value :  3.57503e-05
 Reference value :  3.57510e-05
 Reference value :  3.57523e-05
 Reference value :  3.57534e-05
 Reference value :  3.57545e-05
 Reference value :  3.57558e-05
 Reference value :  3.57583e-05
 Reference value :  3.57596e-05
 Reference value :  3.57673e-05
 Reference value :  3.58784e-05
 Reference value :  3.60001e-05
 Reference value :  3.60001e-05
 Reference value :  3.60005e-05
 Reference value :  3.60016e-05
 Reference value :  3.60024e-05
 Reference value :  3.60034e-05
 Reference value :  3.60044e-05
 Reference value :  3.60053e-05
 Reference value :  3.60076e-05
 Reference value :  3.60093e-05
 Reference value :  3.60102e-05
 Reference value :  3.60119e-05
 Reference value :  3.60135e-05
 Reference value :  3.60153e-05
 Reference value :  3.60162e-05
 Reference value :  3.60188e-05
 Reference value :  3.60291e-05
 Reference value :  3.60789e-05
 Reference value :  3.62501e-05
 Reference value :  3.62501e-05
 Reference value :  3.62502e-05
 Reference value :  3.62503e-05
 Reference value :  3.62507e-05
 Reference value :  3.62514e-05
 Reference value :  3.62523e-05
 Reference value :  3.62534e-05
 Reference value :  3.62553e-05
 Reference value :  3.62618e-05
 Reference value :  3.63168e-05
 Reference value :  3.65000e-05
 Reference value :  3.65001e-05
 Reference value :  3.65003e-05
 Reference value :  3.65012e-05
 Reference value :  3.65019e-05
 Reference value :  3.65028e-05
 Reference value :  3.65039e-05
 Reference value :  3.65054e-05
 Reference value :  3.65066e-05
 Reference value :  3.65084e-05
 Reference value :  3.65103e-05
 Reference value :  3.65167e-05
 Reference value :  3.65474e-05
 Reference value :  3.67501e-05
 Reference value :  3.67502e-05
 Reference value :  3.67502e-05
 Reference value :  3.67504e-05
 Reference value :  3.67510e-05
 Reference value :  3.67514e-05
 Reference value :  3.67523e-05
 Reference value :  3.67530e-05
 Reference value :  3.67534e-05
 Reference value :  3.67545e-05
 Reference value :  3.67558e-05
 Reference value :  3.67575e-05
 Reference value :  3.67596e-05
 Reference value :  3.67673e-05
 Reference value :  3.68194e-05
 Reference value :  3.70000e-05
 Reference value :  3.70001e-05
 Reference value :  3.70001e-05
 Reference value :  3.70003e-05
 Reference value :  3.70008e-05
 Reference value :  3.70016e-05
 Reference value :  3.70024e-05
 Reference value :  3.70034e-05
 Reference value :  3.70044e-05
 Reference value :  3.70053e-05
 Reference value :  3.70076e-05
 Reference value :  3.70093e-05
 Reference value :  3.70111e-05
 Reference value :  3.70127e-05
 Reference value :  3.70145e-05
 Reference value :  3.70165e-05
 Reference value :  3.70254e-05
 Reference value :  3.70599e-05
 Reference value :  3.70771e-05
 Reference value :  3.70909e-05
 Reference value :  3.71093e-05
 Reference value :  3.71427e-05
 Reference value :  3.72031e-05
 Reference value :  3.72502e-05
 Reference value :  3.72504e-05
 Reference value :  3.72519e-05
 Reference value :  3.72534e-05
 Reference value :  3.72560e-05
 Reference value :  3.72723e-05
 Reference value :  3.75000e-05
 Reference value :  3.75001e-05
 Reference value :  3.75002e-05
 Reference value :  3.75008e-05
 Reference value :  3.75016e-05
 Reference value :  3.75029e-05
 Reference value :  3.75047e-05
 Reference value :  3.75062e-05
 Reference value :  3.75077e-05
 Reference value :  3.75109e-05
 Reference value :  3.75296e-05
 Reference value :  3.77501e-05
 Reference value :  3.77502e-05
 Reference value :  3.77503e-05
 Reference value :  3.77507e-05
 Reference value :  3.77514e-05
 Reference value :  3.77530e-05
 Reference value :  3.77534e-05
 Reference value :  3.77545e-05
 Reference value :  3.77558e-05
 Reference value :  3.77636e-05
 Reference value :  3.78566e-05
 Reference value :  3.80000e-05
 Reference value :  3.80001e-05
 Reference value :  3.80002e-05
 Reference value :  3.80008e-05
 Reference value :  3.80016e-05
 Reference value :  3.80024e-05
 Reference value :  3.80034e-05
 Reference value :  3.80050e-05
 Reference value :  3.80071e-05
 Reference value :  3.80112e-05
 Reference value :  3.80132e-05
 Reference value :  3.80152e-05
 Reference value :  3.80174e-05
 Reference value :  3.80240e-05
 Reference value :  3.80349e-05
 Reference value :  3.80478e-05
 Reference value :  3.80597e-05
 Reference value :  3.80699e-05
 Reference value :  3.80964e-05
 Reference value :  3.82501e-05
 Reference value :  3.82502e-05
 Reference value :  3.82504e-05
 Reference value :  3.82514e-05
 Reference value :  3.82530e-05
 Reference value :  3.82546e-05
 Reference value :  3.82588e-05
 Reference value :  3.82857e-05
 Reference value :  3.85000e-05
 Reference value :  3.85004e-05
 Reference value :  3.85014e-05
 Reference value :  3.85023e-05
 Reference value :  3.85033e-05
 Reference value :  3.85046e-05
 Reference value :  3.85061e-05
 Reference value :  3.85075e-05
 Reference value :  3.85103e-05
 Reference value :  3.85170e-05
 Reference value :  3.85556e-05
 Reference value :  3.87501e-05
 Reference value :  3.87501e-05
 Reference value :  3.87502e-05
 Reference value :  3.87503e-05
 Reference value :  3.87507e-05
 Reference value :  3.87514e-05
 Reference value :  3.87530e-05
 Reference value :  3.87534e-05
 Reference value :  3.87545e-05
 Reference value :  3.87558e-05
 Reference value :  3.87575e-05
 Reference value :  3.87596e-05
 Reference value :  3.87674e-05
 Reference value :  3.88796e-05
 Reference value :  3.90000e-05
 Reference value :  3.90001e-05
 Reference value :  3.90002e-05
 Reference value :  3.90003e-05
 Reference value :  3.90008e-05
 Reference value :  3.90016e-05
 Reference value :  3.90024e-05
 Reference value :  3.90029e-05
 Reference value :  3.90039e-05
 Reference value :  3.90048e-05
 Reference value :  3.90066e-05
 Reference value :  3.90084e-05
 Reference value :  3.90102e-05
 Reference value :  3.90119e-05
 Reference value :  3.90135e-05
 Reference value :  3.90153e-05
 Reference value :  3.90191e-05
 Reference value :  3.90392e-05
 Reference value :  3.90659e-05
 Reference value :  3.91349e-05
 Reference value :  3.92086e-05
 Reference value :  3.92501e-05
 Reference value :  3.92502e-05
 Reference value :  3.92507e-05
 Reference value :  3.92514e-05
 Reference value :  3.92530e-05
 Reference value :  3.92540e-05
 Reference value :  3.92560e-05
 Reference value :  3.92618e-05
 Reference value :  3.93169e-05
 Reference value :  3.95000e-05
 Reference value :  3.95001e-05
 Reference value :  3.95002e-05
 Reference value :  3.95008e-05
 Reference value :  3.95019e-05
 Reference value :  3.95028e-05
 Reference value :  3.95046e-05
 Reference value :  3.95060e-05
 Reference value :  3.95075e-05
 Reference value :  3.95103e-05
 Reference value :  3.95167e-05
 Reference value :  3.95474e-05
 Reference value :  3.97501e-05
 Reference value :  3.97502e-05
 Reference value :  3.97503e-05
 Reference value :  3.97510e-05
 Reference value :  3.97519e-05
 Reference value :  3.97530e-05
 Reference value :  3.97540e-05
 Reference value :  3.97550e-05
 Reference value :  3.97566e-05
 Reference value :  3.97596e-05
 Reference value :  3.97747e-05
 Reference value :  3.99962e-05
 Reference value :  4.00001e-05
 Reference value :  4.00001e-05
 Reference value :  4.00003e-05
 Reference value :  4.00012e-05
 Reference value :  4.00020e-05
 Reference value :  4.00029e-05
 Reference value :  4.00039e-05
 Reference value :  4.00048e-05
 Reference value :  4.00059e-05
 Reference value :  4.00076e-05
 Reference value :  4.00093e-05
 Reference value :  4.00102e-05
 Reference value :  4.00119e-05
 Reference value :  4.00136e-05
 Reference value :  4.00153e-05
 Reference value :  4.00174e-05
 Reference value :  4.00208e-05
 Reference value :  4.00315e-05
 Reference value :  4.00350e-05
 Reference value :  4.00402e-05
 Reference value :  4.00435e-05
 Reference value :  4.00521e-05
 Reference value :  4.00731e-05
 Reference value :  4.01559e-05
 Reference value :  4.02501e-05
 Reference value :  4.02502e-05
 Reference value :  4.02503e-05
 Reference value :  4.02507e-05
 Reference value :  4.02514e-05
 Reference value :  4.02530e-05
 Reference value :  4.02540e-05
 Reference value :  4.02552e-05
 Reference value :  4.02589e-05
 Reference value :  4.02866e-05
 Reference value :  4.05000e-05
 Reference value :  4.05001e-05
 Reference value :  4.05001e-05
 Reference value :  4.05003e-05
 Reference value :  4.05008e-05
 Reference value :  4.05016e-05
 Reference value :  4.05024e-05
 Reference value :  4.05034e-05
 Reference value :  4.05055e-05
 Reference value :  4.05069e-05
 Reference value :  4.05087e-05
 Reference value :  4.05155e-05
 Reference value :  4.05825e-05
 Reference value :  4.07501e-05
 Reference value :  4.07502e-05
 Reference value :  4.07504e-05
 Reference value :  4.07514e-05
 Reference value :  4.07530e-05
 Reference value :  4.07540e-05
 Reference value :  4.07550e-05
 Reference value :  4.07582e-05
 Reference value :  4.07822e-05
 Reference value :  4.10000e-05
 Reference value :  4.10008e-05
 Reference value :  4.10030e-05
 Reference value :  4.10044e-05
 Reference value :  4.10050e-05
 Reference value :  4.10062e-05
 Reference value :  4.10093e-05
 Reference value :  4.10120e-05
 Reference value :  4.10139e-05
 Reference value :  4.10159e-05
 Reference value :  4.10202e-05
 Reference value :  4.10424e-05
 Reference value :  4.12383e-05
 Reference value :  4.12501e-05
 Reference value :  4.12502e-05
 Reference value :  4.12507e-05
 Reference value :  4.12514e-05
 Reference value :  4.12530e-05
 Reference value :  4.12539e-05
 Reference value :  4.12551e-05
 Reference value :  4.12645e-05
 Reference value :  4.14633e-05
 Reference value :  4.15001e-05
 Reference value :  4.15001e-05
 Reference value :  4.15003e-05
 Reference value :  4.15008e-05
 Reference value :  4.15016e-05
 Reference value :  4.15029e-05
 Reference value :  4.15040e-05
 Reference value :  4.15055e-05
 Reference value :  4.15069e-05
 Reference value :  4.15077e-05
 Reference value :  4.15095e-05
 Reference value :  4.15125e-05
 Reference value :  4.15204e-05
 Reference value :  4.15803e-05
 Reference value :  4.17501e-05
 Reference value :  4.17501e-05
 Reference value :  4.17502e-05
 Reference value :  4.17502e-05
 Reference value :  4.17503e-05
 Reference value :  4.17507e-05
 Reference value :  4.17514e-05
 Reference value :  4.17523e-05
 Reference value :  4.17530e-05
 Reference value :  4.17534e-05
 Reference value :  4.17545e-05
 Reference value :  4.17558e-05
 Reference value :  4.17582e-05
 Reference value :  4.17699e-05
 Reference value :  4.18580e-05
 Reference value :  4.20000e-05
 Reference value :  4.20001e-05
 Reference value :  4.20001e-05
 Reference value :  4.20003e-05
 Reference value :  4.20008e-05
 Reference value :  4.20016e-05
 Reference value :  4.20024e-05
 Reference value :  4.20034e-05
 Reference value :  4.20045e-05
 Reference value :  4.20056e-05
 Reference value :  4.20072e-05
 Reference value :  4.20088e-05
 Reference value :  4.20226e-05
 Reference value :  4.22326e-05
 Reference value :  4.22501e-05
 Reference value :  4.22502e-05
 Reference value :  4.22504e-05
 Reference value :  4.22514e-05
 Reference value :  4.22530e-05
 Reference value :  4.22545e-05
 Reference value :  4.22562e-05
 Reference value :  4.22592e-05
 Reference value :  4.22914e-05
 Reference value :  4.25000e-05
 Reference value :  4.25001e-05
 Reference value :  4.25001e-05
 Reference value :  4.25002e-05
 Reference value :  4.25006e-05
 Reference value :  4.25014e-05
 Reference value :  4.25023e-05
 Reference value :  4.25034e-05
 Reference value :  4.25044e-05
 Reference value :  4.25061e-05
 Reference value :  4.25217e-05
 Reference value :  4.25258e-05
 Reference value :  4.25287e-05
 Reference value :  4.25313e-05
 Reference value :  4.25354e-05
 Reference value :  4.25372e-05
 Reference value :  4.25433e-05
 Reference value :  4.25539e-05
 Reference value :  4.25680e-05
 Reference value :  4.25781e-05
 Reference value :  4.25984e-05
 Reference value :  4.26781e-05
 Reference value :  4.27502e-05
 Reference value :  4.27502e-05
 Reference value :  4.27503e-05
 Reference value :  4.27507e-05
 Reference value :  4.27514e-05
 Reference value :  4.27523e-05
 Reference value :  4.27534e-05
 Reference value :  4.27545e-05
 Reference value :  4.27559e-05
 Reference value :  4.27614e-05
 Reference value :  4.27849e-05
 Reference value :  4.29726e-05
 Reference value :  4.30000e-05
 Reference value :  4.30001e-05
 Reference value :  4.30002e-05
 Reference value :  4.30003e-05
 Reference value :  4.30008e-05
 Reference value :  4.30015e-05
 Reference value :  4.30023e-05
 Reference value :  4.30028e-05
 Reference value :  4.30039e-05
 Reference value :  4.30064e-05
 Reference value :  4.30088e-05
 Reference value :  4.30112e-05
 Reference value :  4.30124e-05
 Reference value :  4.30154e-05
 Reference value :  4.30255e-05
 Reference value :  4.30790e-05
 Reference value :  4.32501e-05
 Reference value :  4.32502e-05
 Reference value :  4.32503e-05
 Reference value :  4.32507e-05
 Reference value :  4.32514e-05
 Reference value :  4.32523e-05
 Reference value :  4.32530e-05
 Reference value :  4.32534e-05
 Reference value :  4.32545e-05
 Reference value :  4.32558e-05
 Reference value :  4.32573e-05
 Reference value :  4.32609e-05
 Reference value :  4.32838e-05
 Reference value :  4.35000e-05
 Reference value :  4.35011e-05
 Reference value :  4.35043e-05
 Reference value :  4.35063e-05
 Reference value :  4.35090e-05
 Reference value :  4.35108e-05
 Reference value :  4.35124e-05
 Reference value :  4.35138e-05
 Reference value :  4.35163e-05
 Reference value :  4.35202e-05
 Reference value :  4.35495e-05
 Reference value :  4.37501e-05
 Reference value :  4.37502e-05
 Reference value :  4.37503e-05
 Reference value :  4.37507e-05
 Reference value :  4.37514e-05
 Reference value :  4.37529e-05
 Reference value :  4.37538e-05
 Reference value :  4.37549e-05
 Reference value :  4.37580e-05
 Reference value :  4.37803e-05
 Reference value :  4.39417e-05
 Reference value :  4.40000e-05
 Reference value :  4.40001e-05
 Reference value :  4.40002e-05
 Reference value :  4.40008e-05
 Reference value :  4.40015e-05
 Reference value :  4.40023e-05
 Reference value :  4.40028e-05
 Reference value :  4.40039e-05
 Reference value :  4.40054e-05
 Reference value :  4.40060e-05
 Reference value :  4.40075e-05
 Reference value :  4.40103e-05
 Reference value :  4.40167e-05
 Reference value :  4.40473e-05
 Reference value :  4.42501e-05
 Reference value :  4.42502e-05
 Reference value :  4.42503e-05
 Reference value :  4.42504e-05
 Reference value :  4.42510e-05
 Reference value :  4.42514e-05
 Reference value :  4.42523e-05
 Reference value :  4.42534e-05
 Reference value :  4.42545e-05
 Reference value :  4.42558e-05
 Reference value :  4.42575e-05
 Reference value :  4.42597e-05
 Reference value :  4.42750e-05
 Reference value :  4.43810e-05
 Reference value :  4.45000e-05
 Reference value :  4.45001e-05
 Reference value :  4.45002e-05
 Reference value :  4.45008e-05
 Reference value :  4.45016e-05
 Reference value :  4.45024e-05
 Reference value :  4.45034e-05
 Reference value :  4.45044e-05
 Reference value :  4.45053e-05
 Reference value :  4.45076e-05
 Reference value :  4.45093e-05
 Reference value :  4.45102e-05
 Reference value :  4.45119e-05
 Reference value :  4.45136e-05
 Reference value :  4.45154e-05
 Reference value :  4.45192e-05
 Reference value :  4.45316e-05
 Reference value :  4.46407e-05
 Reference value :  4.47501e-05
 Reference value :  4.47502e-05
 Reference value :  4.47502e-05
 Reference value :  4.47504e-05
 Reference value :  4.47514e-05
 Reference value :  4.47523e-05
 Reference value :  4.47534e-05
 Reference value :  4.47546e-05
 Reference value :  4.47575e-05
 Reference value :  4.47654e-05
 Reference value :  4.48168e-05
 Reference value :  4.50000e-05
 Reference value :  4.50001e-05
 Reference value :  4.50001e-05
 Reference value :  4.50003e-05
 Reference value :  4.50008e-05
 Reference value :  4.50015e-05
 Reference value :  4.50023e-05
 Reference value :  4.50028e-05
 Reference value :  4.50039e-05
 Reference value :  4.50054e-05
 Reference value :  4.50060e-05
 Reference value :  4.50075e-05
 Reference value :  4.50092e-05
 Reference value :  4.50103e-05
 Reference value :  4.50167e-05
 Reference value :  4.50474e-05
 Reference value :  4.52501e-05
 Reference value :  4.52501e-05
 Reference value :  4.52502e-05
 Reference value :  4.52503e-05
 Reference value :  4.52507e-05
 Reference value :  4.52514e-05
 Reference value :  4.52523e-05
 Reference value :  4.52534e-05
 Reference value :  4.52545e-05
 Reference value :  4.52558e-05
 Reference value :  4.52575e-05
 Reference value :  4.52596e-05
 Reference value :  4.52673e-05
 Reference value :  4.53192e-05
 Reference value :  4.55000e-05
 Reference value :  4.55001e-05
 Reference value :  4.55001e-05
 Reference value :  4.55003e-05
 Reference value :  4.55008e-05
 Reference value :  4.55016e-05
 Reference value :  4.55024e-05
 Reference value :  4.55029e-05
 Reference value :  4.55039e-05
 Reference value :  4.55048e-05
 Reference value :  4.55059e-05
 Reference value :  4.55076e-05
 Reference value :  4.55084e-05
 Reference value :  4.55093e-05
 Reference value :  4.55102e-05
 Reference value :  4.55119e-05
 Reference value :  4.55136e-05
 Reference value :  4.55155e-05
 Reference value :  4.55177e-05
 Reference value :  4.55254e-05
 Reference value :  4.55585e-05
 Reference value :  4.55745e-05
 Reference value :  4.55878e-05
 Reference value :  4.55964e-05
 Reference value :  4.56161e-05
 Reference value :  4.56448e-05
 Reference value :  4.56783e-05
 Reference value :  4.57501e-05
 Reference value :  4.57502e-05
 Reference value :  4.57503e-05
 Reference value :  4.57510e-05
 Reference value :  4.57519e-05
 Reference value :  4.57530e-05
 Reference value :  4.57540e-05
 Reference value :  4.57552e-05
 Reference value :  4.57589e-05
 Reference value :  4.57723e-05
 Reference value :  4.59868e-05
 Reference value :  4.60002e-05
 Reference value :  4.60009e-05
 Reference value :  4.60015e-05
 Reference value :  4.60024e-05
 Reference value :  4.60041e-05
 Reference value :  4.60058e-05
 Reference value :  4.60085e-05
 Reference value :  4.60118e-05
 Reference value :  4.60313e-05
 Reference value :  4.62373e-05
 Reference value :  4.62501e-05
 Reference value :  4.62502e-05
 Reference value :  4.62504e-05
 Reference value :  4.62514e-05
 Reference value :  4.62530e-05
 Reference value :  4.62534e-05
 Reference value :  4.62545e-05
 Reference value :  4.62558e-05
 Reference value :  4.62602e-05
 Reference value :  4.62821e-05
 Reference value :  4.64550e-05
 Reference value :  4.65000e-05
 Reference value :  4.65001e-05
 Reference value :  4.65001e-05
 Reference value :  4.65002e-05
 Reference value :  4.65005e-05
 Reference value :  4.65012e-05
 Reference value :  4.65016e-05
 Reference value :  4.65024e-05
 Reference value :  4.65029e-05
 Reference value :  4.65040e-05
 Reference value :  4.65050e-05
 Reference value :  4.65063e-05
 Reference value :  4.65085e-05
 Reference value :  4.65112e-05
 Reference value :  4.65122e-05
 Reference value :  4.65143e-05
 Reference value :  4.65152e-05
 Reference value :  4.65174e-05
 Reference value :  4.65240e-05
 Reference value :  4.65349e-05
 Reference value :  4.65513e-05
 Reference value :  4.65590e-05
 Reference value :  4.65645e-05
 Reference value :  4.65704e-05
 Reference value :  4.65770e-05
 Reference value :  4.65894e-05
 Reference value :  4.66258e-05
 Reference value :  4.67501e-05
 Reference value :  4.67502e-05
 Reference value :  4.67502e-05
 Reference value :  4.67504e-05
 Reference value :  4.67510e-05
 Reference value :  4.67519e-05
 Reference value :  4.67530e-05
 Reference value :  4.67539e-05
 Reference value :  4.67553e-05
 Reference value :  4.67573e-05
 Reference value :  4.67649e-05
 Reference value :  4.67857e-05
 Reference value :  4.69797e-05
 Reference value :  4.70000e-05
 Reference value :  4.70001e-05
 Reference value :  4.70001e-05
 Reference value :  4.70002e-05
 Reference value :  4.70005e-05
 Reference value :  4.70012e-05
 Reference value :  4.70015e-05
 Reference value :  4.70023e-05
 Reference value :  4.70028e-05
 Reference value :  4.70033e-05
 Reference value :  4.70046e-05
 Reference value :  4.70060e-05
 Reference value :  4.70075e-05
 Reference value :  4.70092e-05
 Reference value :  4.70103e-05
 Reference value :  4.70167e-05
 Reference value :  4.70474e-05
 Reference value :  4.72501e-05
 Reference value :  4.72501e-05
 Reference value :  4.72502e-05
 Reference value :  4.72503e-05
 Reference value :  4.72504e-05
 Reference value :  4.72510e-05
 Reference value :  4.72514e-05
 Reference value :  4.72523e-05
 Reference value :  4.72530e-05
 Reference value :  4.72534e-05
 Reference value :  4.72545e-05
 Reference value :  4.72558e-05
 Reference value :  4.72575e-05
 Reference value :  4.72596e-05
[...]
 Reference value :  2.59757e-04
 Reference value :  2.59770e-04
 Reference value :  2.59956e-04
 Reference value :  2.60000e-04
 Reference value :  2.60000e-04
 Reference value :  2.60000e-04
 Reference value :  2.60001e-04
 Reference value :  2.60002e-04
 Reference value :  2.60002e-04
 Reference value :  2.60003e-04
 Reference value :  2.60004e-04
 Reference value :  2.60006e-04
 Reference value :  2.60008e-04
 Reference value :  2.60011e-04
 Reference value :  2.60013e-04
 Reference value :  2.60016e-04
 Reference value :  2.60021e-04
 Reference value :  2.60034e-04
 Reference value :  2.60047e-04
 Reference value :  2.60058e-04
 Reference value :  2.60070e-04
 Reference value :  2.60092e-04
 Reference value :  2.60223e-04
 Reference value :  2.60250e-04
 Reference value :  2.60250e-04
 Reference value :  2.60250e-04
 Reference value :  2.60251e-04
 Reference value :  2.60252e-04
 Reference value :  2.60253e-04
 Reference value :  2.60255e-04
 Reference value :  2.60259e-04
 Reference value :  2.60286e-04
 Reference value :  2.60500e-04
 Reference value :  2.60500e-04
 Reference value :  2.60500e-04
 Reference value :  2.60501e-04
 Reference value :  2.60501e-04
 Reference value :  2.60502e-04
 Reference value :  2.60503e-04
 Reference value :  2.60504e-04
 Reference value :  2.60505e-04
 Reference value :  2.60506e-04
 Reference value :  2.60507e-04
 Reference value :  2.60509e-04
 Reference value :  2.60511e-04
 Reference value :  2.60532e-04
 Reference value :  2.60750e-04
 Reference value :  2.60750e-04
 Reference value :  2.60750e-04
 Reference value :  2.60750e-04
 Reference value :  2.60751e-04
 Reference value :  2.60753e-04
 Reference value :  2.60754e-04
 Reference value :  2.60755e-04
 Reference value :  2.60757e-04
 Reference value :  2.60760e-04
 Reference value :  2.60775e-04
 Reference value :  2.60999e-04
 Reference value :  2.61000e-04
 Reference value :  2.61000e-04
 Reference value :  2.61000e-04
 Reference value :  2.61001e-04
 Reference value :  2.61002e-04
 Reference value :  2.61003e-04
 Reference value :  2.61004e-04
 Reference value :  2.61005e-04
 Reference value :  2.61006e-04
 Reference value :  2.61008e-04
 Reference value :  2.61009e-04
 Reference value :  2.61010e-04
 Reference value :  2.61012e-04
 Reference value :  2.61013e-04
 Reference value :  2.61016e-04
 Reference value :  2.61019e-04
 Reference value :  2.61033e-04
 Reference value :  2.61087e-04
 Reference value :  2.61250e-04
 Reference value :  2.61250e-04
 Reference value :  2.61250e-04
 Reference value :  2.61250e-04
 Reference value :  2.61251e-04
 Reference value :  2.61253e-04
 Reference value :  2.61254e-04
 Reference value :  2.61256e-04
 Reference value :  2.61262e-04
 Reference value :  2.61317e-04
 Reference value :  2.61500e-04
 Reference value :  2.61500e-04
 Reference value :  2.61500e-04
 Reference value :  2.61500e-04
 Reference value :  2.61501e-04
 Reference value :  2.61502e-04
 Reference value :  2.61503e-04
 Reference value :  2.61503e-04
 Reference value :  2.61504e-04
 Reference value :  2.61505e-04
 Reference value :  2.61506e-04
 Reference value :  2.61507e-04
 Reference value :  2.61508e-04
 Reference value :  2.61510e-04
 Reference value :  2.61522e-04
 Reference value :  2.61750e-04
 Reference value :  2.61750e-04
 Reference value :  2.61750e-04
 Reference value :  2.61751e-04
 Reference value :  2.61753e-04
 Reference value :  2.61754e-04
 Reference value :  2.61755e-04
 Reference value :  2.61757e-04
 Reference value :  2.61761e-04
 Reference value :  2.61789e-04
 Reference value :  2.62000e-04
 Reference value :  2.62000e-04
 Reference value :  2.62000e-04
 Reference value :  2.62001e-04
 Reference value :  2.62002e-04
 Reference value :  2.62003e-04
 Reference value :  2.62004e-04
 Reference value :  2.62005e-04
 Reference value :  2.62007e-04
 Reference value :  2.62009e-04
 Reference value :  2.62010e-04
 Reference value :  2.62012e-04
 Reference value :  2.62014e-04
 Reference value :  2.62017e-04
 Reference value :  2.62025e-04
 Reference value :  2.62049e-04
 Reference value :  2.62104e-04
 Reference value :  2.62138e-04
 Reference value :  2.62163e-04
 Reference value :  2.62217e-04
 Reference value :  2.62250e-04
 Reference value :  2.62250e-04
 Reference value :  2.62250e-04
 Reference value :  2.62251e-04
 Reference value :  2.62252e-04
 Reference value :  2.62253e-04
 Reference value :  2.62254e-04
 Reference value :  2.62256e-04
 Reference value :  2.62265e-04
 Reference value :  2.62373e-04
 Reference value :  2.62500e-04
 Reference value :  2.62500e-04
 Reference value :  2.62500e-04
 Reference value :  2.62501e-04
 Reference value :  2.62501e-04
 Reference value :  2.62502e-04
 Reference value :  2.62503e-04
 Reference value :  2.62504e-04
 Reference value :  2.62506e-04
 Reference value :  2.62507e-04
 Reference value :  2.62509e-04
 Reference value :  2.62515e-04
 Reference value :  2.62650e-04
 Reference value :  2.62750e-04
 Reference value :  2.62750e-04
 Reference value :  2.62751e-04
 Reference value :  2.62753e-04
 Reference value :  2.62754e-04
 Reference value :  2.62756e-04
 Reference value :  2.62782e-04
 Reference value :  2.63000e-04
 Reference value :  2.63000e-04
 Reference value :  2.63001e-04
 Reference value :  2.63002e-04
 Reference value :  2.63004e-04
 Reference value :  2.63006e-04
 Reference value :  2.63008e-04
 Reference value :  2.63012e-04
 Reference value :  2.63065e-04
 Reference value :  2.63250e-04
 Reference value :  2.63250e-04
 Reference value :  2.63251e-04
 Reference value :  2.63251e-04
 Reference value :  2.63253e-04
 Reference value :  2.63255e-04
 Reference value :  2.63262e-04
 Reference value :  2.63500e-04
 Reference value :  2.63500e-04
 Reference value :  2.63501e-04
 Reference value :  2.63502e-04
 Reference value :  2.63504e-04
 Reference value :  2.63505e-04
 Reference value :  2.63517e-04
 Reference value :  2.63522e-04
 Reference value :  2.63526e-04
 Reference value :  2.63529e-04
 Reference value :  2.63531e-04
 Reference value :  2.63535e-04
 Reference value :  2.63536e-04
 Reference value :  2.63538e-04
 Reference value :  2.63541e-04
 Reference value :  2.63555e-04
 Reference value :  2.63566e-04
 Reference value :  2.63593e-04
 Reference value :  2.63631e-04
 Reference value :  2.63668e-04
 Reference value :  2.63677e-04
 Reference value :  2.63685e-04
 Reference value :  2.63701e-04
 Reference value :  2.63718e-04
 Reference value :  2.63750e-04
 Reference value :  2.63750e-04
 Reference value :  2.63751e-04
 Reference value :  2.63752e-04
 Reference value :  2.63753e-04
 Reference value :  2.63756e-04
 Reference value :  2.63771e-04
 Reference value :  2.64000e-04
 Reference value :  2.64000e-04
 Reference value :  2.64000e-04
 Reference value :  2.64001e-04
 Reference value :  2.64002e-04
 Reference value :  2.64003e-04
 Reference value :  2.64006e-04
 Reference value :  2.64010e-04
 Reference value :  2.64012e-04
 Reference value :  2.64020e-04
 Reference value :  2.64079e-04
 Reference value :  2.64250e-04
 Reference value :  2.64250e-04
 Reference value :  2.64250e-04
 Reference value :  2.64251e-04
 Reference value :  2.64252e-04
 Reference value :  2.64253e-04
 Reference value :  2.64253e-04
 Reference value :  2.64254e-04
 Reference value :  2.64256e-04
 Reference value :  2.64258e-04
 Reference value :  2.64267e-04
 Reference value :  2.64349e-04
 Reference value :  2.64500e-04
 Reference value :  2.64500e-04
 Reference value :  2.64500e-04
 Reference value :  2.64501e-04
 Reference value :  2.64502e-04
 Reference value :  2.64502e-04
 Reference value :  2.64503e-04
 Reference value :  2.64504e-04
 Reference value :  2.64505e-04
 Reference value :  2.64508e-04
 Reference value :  2.64509e-04
 Reference value :  2.64510e-04
 Reference value :  2.64512e-04
 Reference value :  2.64514e-04
 Reference value :  2.64515e-04
 Reference value :  2.64516e-04
 Reference value :  2.64521e-04
 Reference value :  2.64565e-04
 Reference value :  2.64732e-04
 Reference value :  2.64750e-04
 Reference value :  2.64750e-04
 Reference value :  2.64750e-04
 Reference value :  2.64751e-04
 Reference value :  2.64752e-04
 Reference value :  2.64753e-04
 Reference value :  2.64755e-04
 Reference value :  2.64759e-04
 Reference value :  2.64817e-04
 Reference value :  2.65000e-04
 Reference value :  2.65000e-04
 Reference value :  2.65000e-04
 Reference value :  2.65001e-04
 Reference value :  2.65002e-04
 Reference value :  2.65003e-04
 Reference value :  2.65004e-04
 Reference value :  2.65005e-04
 Reference value :  2.65006e-04
 Reference value :  2.65007e-04
 Reference value :  2.65009e-04
 Reference value :  2.65011e-04
 Reference value :  2.65022e-04
 Reference value :  2.65079e-04
 Reference value :  2.65250e-04
 Reference value :  2.65250e-04
 Reference value :  2.65250e-04
 Reference value :  2.65251e-04
 Reference value :  2.65251e-04
 Reference value :  2.65252e-04
 Reference value :  2.65253e-04
 Reference value :  2.65254e-04
 Reference value :  2.65256e-04
 Reference value :  2.65257e-04
 Reference value :  2.65260e-04
 Reference value :  2.65264e-04
 Reference value :  2.65275e-04
 Reference value :  2.65378e-04
 Reference value :  2.65500e-04
 Reference value :  2.65500e-04
 Reference value :  2.65500e-04
 Reference value :  2.65500e-04
 Reference value :  2.65501e-04
 Reference value :  2.65501e-04
 Reference value :  2.65502e-04
 Reference value :  2.65502e-04
 Reference value :  2.65503e-04
 Reference value :  2.65504e-04
 Reference value :  2.65505e-04
 Reference value :  2.65506e-04
 Reference value :  2.65508e-04
 Reference value :  2.65508e-04
 Reference value :  2.65509e-04
 Reference value :  2.65510e-04
 Reference value :  2.65512e-04
 Reference value :  2.65514e-04
 Reference value :  2.65515e-04
 Reference value :  2.65517e-04
 Reference value :  2.65521e-04
 Reference value :  2.65547e-04
 Reference value :  2.65597e-04
 Reference value :  2.65619e-04
 Reference value :  2.65637e-04
 Reference value :  2.65645e-04
 Reference value :  2.65662e-04
 Reference value :  2.65683e-04
 Reference value :  2.65750e-04
 Reference value :  2.65750e-04
 Reference value :  2.65750e-04
 Reference value :  2.65751e-04
 Reference value :  2.65752e-04
 Reference value :  2.65753e-04
 Reference value :  2.65754e-04
 Reference value :  2.65755e-04
 Reference value :  2.65762e-04
 Reference value :  2.65815e-04
 Reference value :  2.66000e-04
 Reference value :  2.66000e-04
 Reference value :  2.66000e-04
 Reference value :  2.66001e-04
 Reference value :  2.66001e-04
 Reference value :  2.66002e-04
 Reference value :  2.66003e-04
 Reference value :  2.66004e-04
 Reference value :  2.66006e-04
 Reference value :  2.66006e-04
 Reference value :  2.66008e-04
 Reference value :  2.66011e-04
 Reference value :  2.66030e-04
 Reference value :  2.66250e-04
 Reference value :  2.66250e-04
 Reference value :  2.66250e-04
 Reference value :  2.66250e-04
 Reference value :  2.66251e-04
 Reference value :  2.66252e-04
 Reference value :  2.66253e-04
 Reference value :  2.66254e-04
 Reference value :  2.66256e-04
 Reference value :  2.66260e-04
 Reference value :  2.66282e-04
 Reference value :  2.66500e-04
 Reference value :  2.66500e-04
 Reference value :  2.66500e-04
 Reference value :  2.66500e-04
 Reference value :  2.66501e-04
 Reference value :  2.66502e-04
 Reference value :  2.66502e-04
 Reference value :  2.66503e-04
 Reference value :  2.66504e-04
 Reference value :  2.66505e-04
 Reference value :  2.66506e-04
 Reference value :  2.66508e-04
 Reference value :  2.66511e-04
 Reference value :  2.66512e-04
 Reference value :  2.66514e-04
 Reference value :  2.66515e-04
 Reference value :  2.66517e-04
 Reference value :  2.66524e-04
 Reference value :  2.66535e-04
 Reference value :  2.66552e-04
 Reference value :  2.66565e-04
 Reference value :  2.66577e-04
 Reference value :  2.66609e-04
 Reference value :  2.66701e-04
 Reference value :  2.66750e-04
 Reference value :  2.66750e-04
 Reference value :  2.66750e-04
 Reference value :  2.66751e-04
 Reference value :  2.66751e-04
 Reference value :  2.66752e-04
 Reference value :  2.66753e-04
 Reference value :  2.66754e-04
 Reference value :  2.66756e-04
 Reference value :  2.66761e-04
 Reference value :  2.66786e-04
 Reference value :  2.66980e-04
 Reference value :  2.67000e-04
 Reference value :  2.67000e-04
 Reference value :  2.67001e-04
 Reference value :  2.67002e-04
 Reference value :  2.67003e-04
 Reference value :  2.67005e-04
 Reference value :  2.67007e-04
 Reference value :  2.67009e-04
 Reference value :  2.67017e-04
 Reference value :  2.67079e-04
 Reference value :  2.67250e-04
 Reference value :  2.67250e-04
 Reference value :  2.67251e-04
 Reference value :  2.67253e-04
 Reference value :  2.67254e-04
 Reference value :  2.67256e-04
 Reference value :  2.67260e-04
 Reference value :  2.67290e-04
 Reference value :  2.67500e-04
 Reference value :  2.67500e-04
 Reference value :  2.67501e-04
 Reference value :  2.67502e-04
 Reference value :  2.67503e-04
 Reference value :  2.67504e-04
 Reference value :  2.67506e-04
 Reference value :  2.67508e-04
 Reference value :  2.67509e-04
 Reference value :  2.67511e-04
 Reference value :  2.67514e-04
 Reference value :  2.67515e-04
 Reference value :  2.67520e-04
 Reference value :  2.67541e-04
 Reference value :  2.67553e-04
 Reference value :  2.67572e-04
 Reference value :  2.67633e-04
 Reference value :  2.67750e-04
 Reference value :  2.67750e-04
 Reference value :  2.67750e-04
 Reference value :  2.67751e-04
 Reference value :  2.67752e-04
 Reference value :  2.67753e-04
 Reference value :  2.67754e-04
 Reference value :  2.67756e-04
 Reference value :  2.67765e-04
 Reference value :  2.67873e-04
 Reference value :  2.68000e-04
 Reference value :  2.68000e-04
 Reference value :  2.68000e-04
 Reference value :  2.68001e-04
 Reference value :  2.68002e-04
 Reference value :  2.68002e-04
 Reference value :  2.68003e-04
 Reference value :  2.68005e-04
 Reference value :  2.68006e-04
 Reference value :  2.68007e-04
 Reference value :  2.68009e-04
 Reference value :  2.68016e-04
 Reference value :  2.68047e-04
 Reference value :  2.68250e-04
 Reference value :  2.68250e-04
 Reference value :  2.68250e-04
 Reference value :  2.68251e-04
 Reference value :  2.68251e-04
 Reference value :  2.68253e-04
 Reference value :  2.68254e-04
 Reference value :  2.68256e-04
 Reference value :  2.68270e-04
 Reference value :  2.68500e-04
 Reference value :  2.68500e-04
 Reference value :  2.68500e-04
 Reference value :  2.68501e-04
 Reference value :  2.68502e-04
 Reference value :  2.68503e-04
 Reference value :  2.68504e-04
 Reference value :  2.68505e-04
 Reference value :  2.68507e-04
 Reference value :  2.68511e-04
 Reference value :  2.68512e-04
 Reference value :  2.68514e-04
 Reference value :  2.68518e-04
 Reference value :  2.68524e-04
 Reference value :  2.68535e-04
 Reference value :  2.68546e-04
 Reference value :  2.68558e-04
 Reference value :  2.68569e-04
 Reference value :  2.68588e-04
 Reference value :  2.68658e-04
 Reference value :  2.68750e-04
 Reference value :  2.68750e-04
 Reference value :  2.68751e-04
 Reference value :  2.68751e-04
 Reference value :  2.68753e-04
 Reference value :  2.68754e-04
 Reference value :  2.68756e-04
 Reference value :  2.68765e-04
 Reference value :  2.68980e-04
 Reference value :  2.69000e-04
 Reference value :  2.69000e-04
 Reference value :  2.69000e-04
 Reference value :  2.69001e-04
 Reference value :  2.69002e-04
 Reference value :  2.69002e-04
 Reference value :  2.69003e-04
 Reference value :  2.69004e-04
 Reference value :  2.69006e-04
 Reference value :  2.69008e-04
 Reference value :  2.69010e-04
 Reference value :  2.69017e-04
 Reference value :  2.69250e-04
 Reference value :  2.69250e-04
 Reference value :  2.69250e-04
 Reference value :  2.69251e-04
 Reference value :  2.69252e-04
 Reference value :  2.69253e-04
 Reference value :  2.69254e-04
 Reference value :  2.69256e-04
 Reference value :  2.69258e-04
 Reference value :  2.69264e-04
 Reference value :  2.69320e-04
 Reference value :  2.69500e-04
 Reference value :  2.69500e-04
 Reference value :  2.69500e-04
 Reference value :  2.69501e-04
 Reference value :  2.69501e-04
 Reference value :  2.69502e-04
 Reference value :  2.69503e-04
 Reference value :  2.69504e-04
 Reference value :  2.69505e-04
 Reference value :  2.69508e-04
 Reference value :  2.69509e-04
 Reference value :  2.69510e-04
 Reference value :  2.69512e-04
 Reference value :  2.69513e-04
 Reference value :  2.69516e-04
 Reference value :  2.69519e-04
 Reference value :  2.69529e-04
 Reference value :  2.69539e-04
 Reference value :  2.69557e-04
 Reference value :  2.69578e-04
 Reference value :  2.69586e-04
 Reference value :  2.69614e-04
 Reference value :  2.69666e-04
 Reference value :  2.69750e-04
 Reference value :  2.69750e-04
 Reference value :  2.69750e-04
 Reference value :  2.69751e-04
 Reference value :  2.69752e-04
 Reference value :  2.69753e-04
 Reference value :  2.69755e-04
 Reference value :  2.69757e-04
 Reference value :  2.69787e-04
 Reference value :  2.70000e-04
 Reference value :  2.70000e-04
 Reference value :  2.70000e-04
 Reference value :  2.70001e-04
 Reference value :  2.70002e-04
 Reference value :  2.70004e-04
 Reference value :  2.70006e-04
 Reference value :  2.70007e-04
 Reference value :  2.70008e-04
 Reference value :  2.70010e-04
 Reference value :  2.70015e-04
 Reference value :  2.70082e-04
 Reference value :  2.70250e-04
 Reference value :  2.70250e-04
 Reference value :  2.70250e-04
 Reference value :  2.70251e-04
 Reference value :  2.70253e-04
 Reference value :  2.70254e-04
 Reference value :  2.70256e-04
 Reference value :  2.70264e-04
 Reference value :  2.70457e-04
 Reference value :  2.70500e-04
 Reference value :  2.70500e-04
 Reference value :  2.70501e-04
 Reference value :  2.70502e-04
 Reference value :  2.70503e-04
 Reference value :  2.70504e-04
 Reference value :  2.70506e-04
 Reference value :  2.70510e-04
 Reference value :  2.70512e-04
 Reference value :  2.70514e-04
 Reference value :  2.70516e-04
 Reference value :  2.70524e-04
 Reference value :  2.70534e-04
 Reference value :  2.70542e-04
 Reference value :  2.70551e-04
 Reference value :  2.70577e-04
 Reference value :  2.70625e-04
 Reference value :  2.70750e-04
 Reference value :  2.70750e-04
 Reference value :  2.70750e-04
 Reference value :  2.70750e-04
 Reference value :  2.70751e-04
 Reference value :  2.70753e-04
 Reference value :  2.70754e-04
 Reference value :  2.70755e-04
 Reference value :  2.70759e-04
 Reference value :  2.70785e-04
 Reference value :  2.71000e-04
 Reference value :  2.71000e-04
 Reference value :  2.71000e-04
 Reference value :  2.71001e-04
 Reference value :  2.71002e-04
 Reference value :  2.71003e-04
 Reference value :  2.71005e-04
 Reference value :  2.71006e-04
 Reference value :  2.71007e-04
 Reference value :  2.71010e-04
 Reference value :  2.71022e-04
 Reference value :  2.71032e-04
 Reference value :  2.71143e-04
 Reference value :  2.71250e-04
 Reference value :  2.71251e-04
 Reference value :  2.71252e-04
 Reference value :  2.71254e-04
 Reference value :  2.71256e-04
 Reference value :  2.71260e-04
 Reference value :  2.71378e-04
 Reference value :  2.71500e-04
 Reference value :  2.71500e-04
 Reference value :  2.71502e-04
 Reference value :  2.71503e-04
 Reference value :  2.71504e-04
 Reference value :  2.71507e-04
 Reference value :  2.71510e-04
 Reference value :  2.71515e-04
 Reference value :  2.71542e-04
 Reference value :  2.71589e-04
 Reference value :  2.71663e-04
 Reference value :  2.71750e-04
 Reference value :  2.71750e-04
 Reference value :  2.71750e-04
 Reference value :  2.71751e-04
 Reference value :  2.71753e-04
 Reference value :  2.71755e-04
 Reference value :  2.71759e-04
 Reference value :  2.71822e-04
No. of Data Rows : 39420
ngspice-44 done
