
Note: Compatibility modes selected: hs a


Circuit: ** sch_path: /home/audrey/cace/sar-adc-using-sky130-pdk/runs/run_2025-09-09_17-05-16/parameters/power/run_1/power_consumption.sch

option SCALE: Scale is set to 1e-06 for instance and model parameters
option SCALE: Scale is set to 1e-06 for instance and model parameters
option SCALE: Scale is set to 1e-06 for instance and model parameters
option SCALE: Scale is set to 1e-06 for instance and model parameters
Doing analysis at TEMP = 27.000000 and TNOM = 27.000000

Using KLU as Direct Linear Solver
 Reference value :  0.00000e+00
 Reference value :  1.00000e-12
 Reference value :  2.00000e-12
 Reference value :  4.00000e-12
 Reference value :  8.00000e-12
 Reference value :  1.60000e-11
 Reference value :  3.20000e-11
 Reference value :  6.40000e-11
 Reference value :  1.00000e-10
 Reference value :  1.01503e-10
 Reference value :  1.04508e-10
 Reference value :  1.10520e-10
 Reference value :  1.22542e-10
 Reference value :  1.46587e-10
 Reference value :  1.94676e-10
 Reference value :  2.90855e-10
 Reference value :  4.40083e-10
 Reference value :  7.34064e-10
 Reference value :  1.08266e-09
 Reference value :  1.60978e-09
 Reference value :  2.19767e-09
 Reference value :  2.78292e-09
 Reference value :  3.47569e-09
 Reference value :  4.23113e-09
 Reference value :  4.88682e-09
 Reference value :  5.59828e-09
 Reference value :  6.32107e-09
 Reference value :  6.98853e-09
 Reference value :  7.86638e-09
 Reference value :  8.79342e-09
 Reference value :  9.83175e-09
 Reference value :  1.09902e-08
 Reference value :  1.23367e-08
 Reference value :  1.37025e-08
 Reference value :  1.50160e-08
 Reference value :  1.61403e-08
 Reference value :  1.73437e-08
 Reference value :  1.86684e-08
 Reference value :  2.02645e-08
 Reference value :  2.27801e-08
 Reference value :  2.47338e-08
 Reference value :  2.72692e-08
 Reference value :  3.01261e-08
 Reference value :  3.44979e-08
 Reference value :  3.89465e-08
 Reference value :  4.37190e-08
 Reference value :  4.81849e-08
 Reference value :  5.12535e-08
 Reference value :  5.43691e-08
 Reference value :  5.71700e-08
 Reference value :  6.00137e-08
 Reference value :  6.38007e-08
 Reference value :  6.79047e-08
 Reference value :  7.29133e-08
 Reference value :  7.87403e-08
 Reference value :  8.73681e-08
 Reference value :  9.79336e-08
 Reference value :  1.12934e-07
 Reference value :  1.33802e-07
 Reference value :  1.66727e-07
 Reference value :  2.25518e-07
 Reference value :  2.50100e-07
 Reference value :  2.50110e-07
 Reference value :  2.50130e-07
 Reference value :  2.50170e-07
 Reference value :  2.50200e-07
 Reference value :  2.50201e-07
 Reference value :  2.50202e-07
 Reference value :  2.50204e-07
 Reference value :  2.50208e-07
 Reference value :  2.50216e-07
 Reference value :  2.50233e-07
 Reference value :  2.50266e-07
 Reference value :  2.50333e-07
 Reference value :  2.50406e-07
 Reference value :  2.50551e-07
 Reference value :  2.50716e-07
 Reference value :  2.51035e-07
 Reference value :  2.51377e-07
 Reference value :  2.51875e-07
 Reference value :  2.52421e-07
 Reference value :  2.53046e-07
 Reference value :  2.53903e-07
 Reference value :  2.54646e-07
 Reference value :  2.55465e-07
 Reference value :  2.56239e-07
 Reference value :  2.57103e-07
 Reference value :  2.57935e-07
 Reference value :  2.59350e-07
 Reference value :  2.61251e-07
 Reference value :  2.63521e-07
 Reference value :  2.67040e-07
 Reference value :  2.72106e-07
 Reference value :  2.78204e-07
 Reference value :  2.84286e-07
 Reference value :  2.90391e-07
 Reference value :  2.96258e-07
 Reference value :  3.01235e-07
 Reference value :  3.06345e-07
 Reference value :  3.12994e-07
 Reference value :  3.18811e-07
 Reference value :  3.26136e-07
 Reference value :  3.34709e-07
 Reference value :  3.51854e-07
 Reference value :  3.84968e-07
 Reference value :  4.37576e-07
 Reference value :  5.00000e-07
 Reference value :  5.00010e-07
 Reference value :  5.00030e-07
 Reference value :  5.00070e-07
 Reference value :  5.00100e-07
 Reference value :  5.00104e-07
 Reference value :  5.00113e-07
 Reference value :  5.00129e-07
 Reference value :  5.00163e-07
 Reference value :  5.00230e-07
 Reference value :  5.00365e-07
 Reference value :  5.00551e-07
 Reference value :  5.00923e-07
 Reference value :  5.01509e-07
 Reference value :  5.02039e-07
 Reference value :  5.02623e-07
 Reference value :  5.03252e-07
 Reference value :  5.03982e-07
 Reference value :  5.04741e-07
 Reference value :  5.05516e-07
 Reference value :  5.06562e-07
 Reference value :  5.07581e-07
 Reference value :  5.09461e-07
 Reference value :  5.12238e-07
 Reference value :  5.14128e-07
 Reference value :  5.16257e-07
 Reference value :  5.18508e-07
 Reference value :  5.20941e-07
 Reference value :  5.23679e-07
 Reference value :  5.28277e-07
 Reference value :  5.34821e-07
 Reference value :  5.45837e-07
 Reference value :  5.64875e-07
 Reference value :  5.96837e-07
 Reference value :  6.54548e-07
 Reference value :  7.50100e-07
 Reference value :  7.50110e-07
 Reference value :  7.50130e-07
 Reference value :  7.50170e-07
 Reference value :  7.50200e-07
 Reference value :  7.50201e-07
 Reference value :  7.50202e-07
 Reference value :  7.50205e-07
 Reference value :  7.50211e-07
 Reference value :  7.50223e-07
 Reference value :  7.50247e-07
 Reference value :  7.50295e-07
 Reference value :  7.50390e-07
 Reference value :  7.50580e-07
 Reference value :  7.50954e-07
 Reference value :  7.51429e-07
 Reference value :  7.51992e-07
 Reference value :  7.52594e-07
 Reference value :  7.53250e-07
 Reference value :  7.54107e-07
 Reference value :  7.54727e-07
 Reference value :  7.55453e-07
 Reference value :  7.56125e-07
 Reference value :  7.56859e-07
 Reference value :  7.57774e-07
 Reference value :  7.58770e-07
 Reference value :  7.59805e-07
 Reference value :  7.61316e-07
 Reference value :  7.62895e-07
 Reference value :  7.65202e-07
 Reference value :  7.67930e-07
 Reference value :  7.72126e-07
 Reference value :  7.80519e-07
 Reference value :  7.93221e-07
 Reference value :  8.18625e-07
 Reference value :  8.69432e-07
 Reference value :  9.71046e-07
 Reference value :  1.00000e-06
 Reference value :  1.00001e-06
 Reference value :  1.00003e-06
 Reference value :  1.00007e-06
 Reference value :  1.00010e-06
 Reference value :  1.00010e-06
 Reference value :  1.00011e-06
 Reference value :  1.00013e-06
 Reference value :  1.00016e-06
 Reference value :  1.00023e-06
 Reference value :  1.00037e-06
 Reference value :  1.00055e-06
 Reference value :  1.00093e-06
 Reference value :  1.00151e-06
 Reference value :  1.00204e-06
 Reference value :  1.00261e-06
 Reference value :  1.00329e-06
 Reference value :  1.00408e-06
 Reference value :  1.00484e-06
 Reference value :  1.00553e-06
 Reference value :  1.00625e-06
 Reference value :  1.00696e-06
 Reference value :  1.00774e-06
 Reference value :  1.00853e-06
 Reference value :  1.00964e-06
 Reference value :  1.01104e-06
 Reference value :  1.01323e-06
 Reference value :  1.01470e-06
 Reference value :  1.01635e-06
 Reference value :  1.01800e-06
 Reference value :  1.01946e-06
 Reference value :  1.02064e-06
 Reference value :  1.02190e-06
 Reference value :  1.02330e-06
 Reference value :  1.02488e-06
 Reference value :  1.02650e-06
 Reference value :  1.02909e-06
 Reference value :  1.03234e-06
 Reference value :  1.03882e-06
 Reference value :  1.04947e-06
 Reference value :  1.06797e-06
 Reference value :  1.09676e-06
 Reference value :  1.15435e-06
 Reference value :  1.20776e-06
 Reference value :  1.25010e-06
 Reference value :  1.25011e-06
 Reference value :  1.25013e-06
 Reference value :  1.25017e-06
 Reference value :  1.25020e-06
 Reference value :  1.25020e-06
 Reference value :  1.25020e-06
 Reference value :  1.25021e-06
 Reference value :  1.25021e-06
 Reference value :  1.25022e-06
 Reference value :  1.25025e-06
 Reference value :  1.25029e-06
 Reference value :  1.25039e-06
 Reference value :  1.25057e-06
 Reference value :  1.25090e-06
 Reference value :  1.25140e-06
 Reference value :  1.25202e-06
 Reference value :  1.25261e-06
 Reference value :  1.25328e-06
 Reference value :  1.25410e-06
 Reference value :  1.25471e-06
 Reference value :  1.25541e-06
 Reference value :  1.25633e-06
 Reference value :  1.25715e-06
 Reference value :  1.25831e-06
 Reference value :  1.26017e-06
 Reference value :  1.26213e-06
 Reference value :  1.26522e-06
 Reference value :  1.26916e-06
 Reference value :  1.27705e-06
 Reference value :  1.29282e-06
 Reference value :  1.32436e-06
 Reference value :  1.38745e-06
 Reference value :  1.47963e-06
 Reference value :  1.50000e-06
 Reference value :  1.50001e-06
 Reference value :  1.50003e-06
 Reference value :  1.50007e-06
 Reference value :  1.50010e-06
 Reference value :  1.50010e-06
 Reference value :  1.50011e-06
 Reference value :  1.50013e-06
 Reference value :  1.50016e-06
 Reference value :  1.50023e-06
 Reference value :  1.50036e-06
 Reference value :  1.50054e-06
 Reference value :  1.50089e-06
 Reference value :  1.50139e-06
 Reference value :  1.50190e-06
 Reference value :  1.50244e-06
 Reference value :  1.50310e-06
 Reference value :  1.50376e-06
 Reference value :  1.50450e-06
 Reference value :  1.50536e-06
 Reference value :  1.50620e-06
 Reference value :  1.50748e-06
 Reference value :  1.50883e-06
 Reference value :  1.51009e-06
 Reference value :  1.51140e-06
 Reference value :  1.51305e-06
 Reference value :  1.51458e-06
 Reference value :  1.51653e-06
 Reference value :  1.51832e-06
 Reference value :  1.52190e-06
 Reference value :  1.52902e-06
 Reference value :  1.53992e-06
 Reference value :  1.56172e-06
 Reference value :  1.60532e-06
 Reference value :  1.69253e-06
 Reference value :  1.75010e-06
 Reference value :  1.75011e-06
 Reference value :  1.75013e-06
 Reference value :  1.75017e-06
 Reference value :  1.75020e-06
 Reference value :  1.75020e-06
 Reference value :  1.75020e-06
 Reference value :  1.75021e-06
 Reference value :  1.75021e-06
 Reference value :  1.75022e-06
 Reference value :  1.75025e-06
 Reference value :  1.75029e-06
 Reference value :  1.75039e-06
 Reference value :  1.75058e-06
 Reference value :  1.75091e-06
 Reference value :  1.75141e-06
 Reference value :  1.75204e-06
 Reference value :  1.75262e-06
 Reference value :  1.75330e-06
 Reference value :  1.75414e-06
 Reference value :  1.75475e-06
 Reference value :  1.75545e-06
 Reference value :  1.75614e-06
 Reference value :  1.75687e-06
 Reference value :  1.75781e-06
 Reference value :  1.75884e-06
 Reference value :  1.76089e-06
 Reference value :  1.76307e-06
 Reference value :  1.76681e-06
 Reference value :  1.77160e-06
 Reference value :  1.78117e-06
 Reference value :  1.80032e-06
 Reference value :  1.83861e-06
 Reference value :  1.91520e-06
 Reference value :  2.00000e-06
 Reference value :  2.00001e-06
 Reference value :  2.00003e-06
 Reference value :  2.00007e-06
 Reference value :  2.00010e-06
 Reference value :  2.00010e-06
 Reference value :  2.00011e-06
 Reference value :  2.00013e-06
 Reference value :  2.00016e-06
 Reference value :  2.00023e-06
 Reference value :  2.00036e-06
 Reference value :  2.00054e-06
 Reference value :  2.00089e-06
 Reference value :  2.00139e-06
 Reference value :  2.00190e-06
 Reference value :  2.00244e-06
 Reference value :  2.00310e-06
 Reference value :  2.00375e-06
 Reference value :  2.00453e-06
 Reference value :  2.00519e-06
 Reference value :  2.00590e-06
 Reference value :  2.00675e-06
 Reference value :  2.00748e-06
 Reference value :  2.00827e-06
 Reference value :  2.00934e-06
 Reference value :  2.01037e-06
 Reference value :  2.01228e-06
 Reference value :  2.01468e-06
 Reference value :  2.01664e-06
 Reference value :  2.01870e-06
 Reference value :  2.02020e-06
 Reference value :  2.02159e-06
 Reference value :  2.02284e-06
 Reference value :  2.02422e-06
 Reference value :  2.02574e-06
 Reference value :  2.02800e-06
 Reference value :  2.03013e-06
 Reference value :  2.03413e-06
 Reference value :  2.03984e-06
 Reference value :  2.04856e-06
 Reference value :  2.06344e-06
 Reference value :  2.07847e-06
 Reference value :  2.09157e-06
 Reference value :  2.10442e-06
 Reference value :  2.11380e-06
 Reference value :  2.12261e-06
 Reference value :  2.12980e-06
 Reference value :  2.13745e-06
 Reference value :  2.14460e-06
 Reference value :  2.15235e-06
 Reference value :  2.16784e-06
 Reference value :  2.18380e-06
 Reference value :  2.21091e-06
 Reference value :  2.25010e-06
 Reference value :  2.25011e-06
 Reference value :  2.25013e-06
 Reference value :  2.25017e-06
 Reference value :  2.25020e-06
 Reference value :  2.25020e-06
 Reference value :  2.25020e-06
 Reference value :  2.25021e-06
 Reference value :  2.25021e-06
 Reference value :  2.25022e-06
 Reference value :  2.25025e-06
 Reference value :  2.25029e-06
 Reference value :  2.25039e-06
 Reference value :  2.25058e-06
 Reference value :  2.25091e-06
 Reference value :  2.25140e-06
 Reference value :  2.25204e-06
 Reference value :  2.25262e-06
 Reference value :  2.25330e-06
 Reference value :  2.25414e-06
 Reference value :  2.25474e-06
 Reference value :  2.25542e-06
 Reference value :  2.25624e-06
 Reference value :  2.25721e-06
 Reference value :  2.25819e-06
 Reference value :  2.26016e-06
 Reference value :  2.26206e-06
 Reference value :  2.26520e-06
 Reference value :  2.26903e-06
 Reference value :  2.27669e-06
 Reference value :  2.29200e-06
 Reference value :  2.32263e-06
 Reference value :  2.38388e-06
 Reference value :  2.48145e-06
 Reference value :  2.50000e-06
 Reference value :  2.50001e-06
 Reference value :  2.50003e-06
 Reference value :  2.50007e-06
 Reference value :  2.50010e-06
 Reference value :  2.50010e-06
 Reference value :  2.50011e-06
 Reference value :  2.50013e-06
 Reference value :  2.50016e-06
 Reference value :  2.50023e-06
 Reference value :  2.50036e-06
 Reference value :  2.50054e-06
 Reference value :  2.50089e-06
 Reference value :  2.50139e-06
 Reference value :  2.50190e-06
 Reference value :  2.50240e-06
 Reference value :  2.50303e-06
 Reference value :  2.50367e-06
 Reference value :  2.50454e-06
 Reference value :  2.50535e-06
 Reference value :  2.50628e-06
 Reference value :  2.50760e-06
 Reference value :  2.50904e-06
 Reference value :  2.51044e-06
 Reference value :  2.51185e-06
 Reference value :  2.51315e-06
 Reference value :  2.51457e-06
 Reference value :  2.51596e-06
 Reference value :  2.51760e-06
 Reference value :  2.52088e-06
 Reference value :  2.52589e-06
 Reference value :  2.53591e-06
 Reference value :  2.55596e-06
 Reference value :  2.59605e-06
 Reference value :  2.67623e-06
 Reference value :  2.75010e-06
 Reference value :  2.75011e-06
 Reference value :  2.75013e-06
 Reference value :  2.75017e-06
 Reference value :  2.75020e-06
 Reference value :  2.75020e-06
 Reference value :  2.75020e-06
 Reference value :  2.75021e-06
 Reference value :  2.75021e-06
 Reference value :  2.75022e-06
 Reference value :  2.75025e-06
 Reference value :  2.75029e-06
 Reference value :  2.75039e-06
 Reference value :  2.75058e-06
 Reference value :  2.75091e-06
 Reference value :  2.75140e-06
 Reference value :  2.75198e-06
 Reference value :  2.75258e-06
 Reference value :  2.75323e-06
 Reference value :  2.75407e-06
 Reference value :  2.75468e-06
 Reference value :  2.75540e-06
 Reference value :  2.75605e-06
 Reference value :  2.75677e-06
 Reference value :  2.75767e-06
 Reference value :  2.75866e-06
 Reference value :  2.75968e-06
 Reference value :  2.76118e-06
 Reference value :  2.76283e-06
 Reference value :  2.76511e-06
 Reference value :  2.76793e-06
 Reference value :  2.77213e-06
 Reference value :  2.78055e-06
 Reference value :  2.79636e-06
 Reference value :  2.82799e-06
 Reference value :  2.89125e-06
 Reference value :  3.00000e-06
 Reference value :  3.00001e-06
 Reference value :  3.00003e-06
 Reference value :  3.00007e-06
 Reference value :  3.00010e-06
 Reference value :  3.00010e-06
 Reference value :  3.00011e-06
 Reference value :  3.00013e-06
 Reference value :  3.00016e-06
 Reference value :  3.00023e-06
 Reference value :  3.00036e-06
 Reference value :  3.00054e-06
 Reference value :  3.00089e-06
 Reference value :  3.00139e-06
 Reference value :  3.00190e-06
 Reference value :  3.00243e-06
 Reference value :  3.00309e-06
 Reference value :  3.00375e-06
 Reference value :  3.00452e-06
 Reference value :  3.00515e-06
 Reference value :  3.00585e-06
 Reference value :  3.00654e-06
 Reference value :  3.00723e-06
 Reference value :  3.00797e-06
 Reference value :  3.00889e-06
 Reference value :  3.00988e-06
 Reference value :  3.01155e-06
 Reference value :  3.01316e-06
 Reference value :  3.01461e-06
 Reference value :  3.01613e-06
 Reference value :  3.01769e-06
 Reference value :  3.01890e-06
 Reference value :  3.02006e-06
 Reference value :  3.02151e-06
 Reference value :  3.02288e-06
 Reference value :  3.02420e-06
 Reference value :  3.02585e-06
 Reference value :  3.02806e-06
 Reference value :  3.03034e-06
 Reference value :  3.03436e-06
 Reference value :  3.04006e-06
 Reference value :  3.04923e-06
 Reference value :  3.06444e-06
 Reference value :  3.07681e-06
 Reference value :  3.08513e-06
 Reference value :  3.09109e-06
 Reference value :  3.09524e-06
 Reference value :  3.09985e-06
 Reference value :  3.10717e-06
 Reference value :  3.11453e-06
 Reference value :  3.12649e-06
 Reference value :  3.13981e-06
 Reference value :  3.16217e-06
 Reference value :  3.19714e-06
 Reference value :  3.22901e-06
 Reference value :  3.25010e-06
 Reference value :  3.25011e-06
 Reference value :  3.25013e-06
 Reference value :  3.25017e-06
 Reference value :  3.25020e-06
 Reference value :  3.25020e-06
 Reference value :  3.25020e-06
 Reference value :  3.25021e-06
 Reference value :  3.25021e-06
 Reference value :  3.25022e-06
 Reference value :  3.25025e-06
 Reference value :  3.25029e-06
 Reference value :  3.25039e-06
 Reference value :  3.25058e-06
 Reference value :  3.25091e-06
 Reference value :  3.25140e-06
 Reference value :  3.25198e-06
 Reference value :  3.25258e-06
 Reference value :  3.25323e-06
 Reference value :  3.25406e-06
 Reference value :  3.25469e-06
 Reference value :  3.25541e-06
 Reference value :  3.25619e-06
 Reference value :  3.25701e-06
 Reference value :  3.25814e-06
 Reference value :  3.25976e-06
 Reference value :  3.26175e-06
 Reference value :  3.26448e-06
 Reference value :  3.26839e-06
 Reference value :  3.27620e-06
 Reference value :  3.29182e-06
 Reference value :  3.32306e-06
 Reference value :  3.38554e-06
 Reference value :  3.50000e-06
 Reference value :  3.50001e-06
 Reference value :  3.50003e-06
 Reference value :  3.50007e-06
 Reference value :  3.50010e-06
 Reference value :  3.50010e-06
 Reference value :  3.50011e-06
 Reference value :  3.50013e-06
 Reference value :  3.50016e-06
 Reference value :  3.50023e-06
 Reference value :  3.50037e-06
 Reference value :  3.50054e-06
 Reference value :  3.50090e-06
 Reference value :  3.50139e-06
 Reference value :  3.50191e-06
 Reference value :  3.50245e-06
 Reference value :  3.50312e-06
 Reference value :  3.50378e-06
 Reference value :  3.50452e-06
 Reference value :  3.50537e-06
 Reference value :  3.50619e-06
 Reference value :  3.50732e-06
 Reference value :  3.50871e-06
 Reference value :  3.50989e-06
 Reference value :  3.51113e-06
 Reference value :  3.51249e-06
 Reference value :  3.51406e-06
 Reference value :  3.51570e-06
 Reference value :  3.51746e-06
 Reference value :  3.52099e-06
 Reference value :  3.52678e-06
 Reference value :  3.53797e-06
 Reference value :  3.56034e-06
 Reference value :  3.60510e-06
 Reference value :  3.69462e-06
 Reference value :  3.75010e-06
 Reference value :  3.75011e-06
 Reference value :  3.75013e-06
 Reference value :  3.75017e-06
 Reference value :  3.75020e-06
 Reference value :  3.75020e-06
 Reference value :  3.75020e-06
 Reference value :  3.75021e-06
 Reference value :  3.75021e-06
 Reference value :  3.75022e-06
 Reference value :  3.75025e-06
 Reference value :  3.75029e-06
 Reference value :  3.75039e-06
 Reference value :  3.75058e-06
 Reference value :  3.75091e-06
 Reference value :  3.75140e-06
 Reference value :  3.75198e-06
 Reference value :  3.75258e-06
 Reference value :  3.75322e-06
 Reference value :  3.75406e-06
 Reference value :  3.75468e-06
 Reference value :  3.75539e-06
 Reference value :  3.75604e-06
 Reference value :  3.75676e-06
 Reference value :  3.75766e-06
 Reference value :  3.75865e-06
 Reference value :  3.76064e-06
 Reference value :  3.76273e-06
 Reference value :  3.76627e-06
 Reference value :  3.77062e-06
 Reference value :  3.77932e-06
 Reference value :  3.79672e-06
 Reference value :  3.83152e-06
 Reference value :  3.90112e-06
 Reference value :  4.00000e-06
 Reference value :  4.00001e-06
 Reference value :  4.00003e-06
 Reference value :  4.00007e-06
 Reference value :  4.00010e-06
 Reference value :  4.00010e-06
 Reference value :  4.00011e-06
 Reference value :  4.00013e-06
 Reference value :  4.00016e-06
 Reference value :  4.00023e-06
 Reference value :  4.00036e-06
 Reference value :  4.00054e-06
 Reference value :  4.00089e-06
 Reference value :  4.00139e-06
 Reference value :  4.00190e-06
 Reference value :  4.00243e-06
 Reference value :  4.00310e-06
 Reference value :  4.00375e-06
 Reference value :  4.00453e-06
 Reference value :  4.00519e-06
 Reference value :  4.00590e-06
 Reference value :  4.00678e-06
 Reference value :  4.00756e-06
 Reference value :  4.00837e-06
 Reference value :  4.00946e-06
 Reference value :  4.01059e-06
 Reference value :  4.01261e-06
 Reference value :  4.01506e-06
 Reference value :  4.01692e-06
 Reference value :  4.01897e-06
 Reference value :  4.02065e-06
 Reference value :  4.02242e-06
 Reference value :  4.02417e-06
 Reference value :  4.02629e-06
 Reference value :  4.02822e-06
 Reference value :  4.03111e-06
 Reference value :  4.03485e-06
 Reference value :  4.04121e-06
 Reference value :  4.04912e-06
 Reference value :  4.05653e-06
 Reference value :  4.06304e-06
 Reference value :  4.07036e-06
 Reference value :  4.07549e-06
 Reference value :  4.08057e-06
 Reference value :  4.08690e-06
 Reference value :  4.09329e-06
 Reference value :  4.10083e-06
 Reference value :  4.10767e-06
 Reference value :  4.11516e-06
 Reference value :  4.13013e-06
 Reference value :  4.14502e-06
 Reference value :  4.17057e-06
 Reference value :  4.21004e-06
 Reference value :  4.25010e-06
 Reference value :  4.25011e-06
 Reference value :  4.25013e-06
 Reference value :  4.25017e-06
 Reference value :  4.25020e-06
 Reference value :  4.25020e-06
 Reference value :  4.25020e-06
 Reference value :  4.25021e-06
 Reference value :  4.25021e-06
 Reference value :  4.25022e-06
 Reference value :  4.25025e-06
 Reference value :  4.25029e-06
 Reference value :  4.25039e-06
 Reference value :  4.25058e-06
 Reference value :  4.25091e-06
 Reference value :  4.25140e-06
 Reference value :  4.25204e-06
 Reference value :  4.25261e-06
 Reference value :  4.25330e-06
 Reference value :  4.25414e-06
 Reference value :  4.25474e-06
 Reference value :  4.25542e-06
 Reference value :  4.25624e-06
 Reference value :  4.25727e-06
 Reference value :  4.25823e-06
 Reference value :  4.26016e-06
 Reference value :  4.26210e-06
 Reference value :  4.26523e-06
 Reference value :  4.26910e-06
 Reference value :  4.27684e-06
 Reference value :  4.29232e-06
 Reference value :  4.32329e-06
 Reference value :  4.38522e-06
 Reference value :  4.50000e-06
 Reference value :  4.50001e-06
 Reference value :  4.50003e-06
 Reference value :  4.50007e-06
 Reference value :  4.50010e-06
 Reference value :  4.50010e-06
 Reference value :  4.50011e-06
 Reference value :  4.50013e-06
 Reference value :  4.50016e-06
 Reference value :  4.50023e-06
 Reference value :  4.50037e-06
 Reference value :  4.50054e-06
 Reference value :  4.50090e-06
 Reference value :  4.50139e-06
 Reference value :  4.50191e-06
 Reference value :  4.50242e-06
 Reference value :  4.50304e-06
 Reference value :  4.50369e-06
 Reference value :  4.50456e-06
 Reference value :  4.50534e-06
 Reference value :  4.50628e-06
 Reference value :  4.50743e-06
 Reference value :  4.50870e-06
 Reference value :  4.50990e-06
 Reference value :  4.51112e-06
 Reference value :  4.51229e-06
 Reference value :  4.51360e-06
 Reference value :  4.51493e-06
 Reference value :  4.51644e-06
 Reference value :  4.51946e-06
 Reference value :  4.52550e-06
 Reference value :  4.53607e-06
 Reference value :  4.55720e-06
 Reference value :  4.59946e-06
 Reference value :  4.68398e-06
 Reference value :  4.75010e-06
 Reference value :  4.75011e-06
 Reference value :  4.75013e-06
 Reference value :  4.75017e-06
 Reference value :  4.75020e-06
 Reference value :  4.75020e-06
 Reference value :  4.75020e-06
 Reference value :  4.75021e-06
 Reference value :  4.75021e-06
 Reference value :  4.75022e-06
 Reference value :  4.75025e-06
 Reference value :  4.75029e-06
 Reference value :  4.75039e-06
 Reference value :  4.75058e-06
 Reference value :  4.75091e-06
 Reference value :  4.75140e-06
 Reference value :  4.75204e-06
 Reference value :  4.75261e-06
 Reference value :  4.75330e-06
 Reference value :  4.75415e-06
 Reference value :  4.75476e-06
 Reference value :  4.75545e-06
 Reference value :  4.75615e-06
 Reference value :  4.75689e-06
 Reference value :  4.75787e-06
 Reference value :  4.75894e-06
 Reference value :  4.76007e-06
 Reference value :  4.76153e-06
 Reference value :  4.76365e-06
 Reference value :  4.76566e-06
 Reference value :  4.76933e-06
 Reference value :  4.77391e-06
 Reference value :  4.78308e-06
 Reference value :  4.80140e-06
 Reference value :  4.83805e-06
 Reference value :  4.91134e-06
 Reference value :  5.00000e-06
 Reference value :  5.00001e-06
 Reference value :  5.00003e-06
 Reference value :  5.00007e-06
 Reference value :  5.00010e-06
 Reference value :  5.00010e-06
 Reference value :  5.00011e-06
 Reference value :  5.00013e-06
 Reference value :  5.00016e-06
 Reference value :  5.00023e-06
 Reference value :  5.00036e-06
 Reference value :  5.00054e-06
 Reference value :  5.00089e-06
 Reference value :  5.00138e-06
 Reference value :  5.00189e-06
 Reference value :  5.00243e-06
 Reference value :  5.00309e-06
 Reference value :  5.00374e-06
 Reference value :  5.00451e-06
 Reference value :  5.00514e-06
 Reference value :  5.00584e-06
 Reference value :  5.00652e-06
 Reference value :  5.00720e-06
 Reference value :  5.00792e-06
 Reference value :  5.00898e-06
 Reference value :  5.00994e-06
 Reference value :  5.01179e-06
 Reference value :  5.01294e-06
 Reference value :  5.01429e-06
 Reference value :  5.01560e-06
 Reference value :  5.01715e-06
 Reference value :  5.01864e-06
 Reference value :  5.02001e-06
 Reference value :  5.02151e-06
 Reference value :  5.02285e-06
 Reference value :  5.02424e-06
 Reference value :  5.02588e-06
 Reference value :  5.02798e-06
 Reference value :  5.03026e-06
 Reference value :  5.03361e-06
 Reference value :  5.03755e-06
 Reference value :  5.04202e-06
 Reference value :  5.04507e-06
 Reference value :  5.04833e-06
 Reference value :  5.05132e-06
 Reference value :  5.05581e-06
 Reference value :  5.06217e-06
 Reference value :  5.07049e-06
 Reference value :  5.08364e-06
 Reference value :  5.10194e-06
 Reference value :  5.12726e-06
 Reference value :  5.15978e-06
 Reference value :  5.22121e-06
 Reference value :  5.25010e-06
 Reference value :  5.25011e-06
 Reference value :  5.25013e-06
 Reference value :  5.25017e-06
 Reference value :  5.25020e-06
 Reference value :  5.25020e-06
 Reference value :  5.25020e-06
 Reference value :  5.25021e-06
 Reference value :  5.25021e-06
 Reference value :  5.25022e-06
 Reference value :  5.25025e-06
 Reference value :  5.25029e-06
 Reference value :  5.25039e-06
 Reference value :  5.25058e-06
 Reference value :  5.25091e-06
 Reference value :  5.25140e-06
 Reference value :  5.25203e-06
 Reference value :  5.25261e-06
 Reference value :  5.25330e-06
 Reference value :  5.25414e-06
 Reference value :  5.25475e-06
 Reference value :  5.25546e-06
 Reference value :  5.25636e-06
 Reference value :  5.25725e-06
 Reference value :  5.25833e-06
 Reference value :  5.26025e-06
 Reference value :  5.26221e-06
 Reference value :  5.26541e-06
 Reference value :  5.26936e-06
 Reference value :  5.27728e-06
 Reference value :  5.29310e-06
 Reference value :  5.32476e-06
 Reference value :  5.38807e-06
 Reference value :  5.50000e-06
 Reference value :  5.50001e-06
 Reference value :  5.50003e-06
 Reference value :  5.50007e-06
 Reference value :  5.50010e-06
 Reference value :  5.50010e-06
 Reference value :  5.50011e-06
 Reference value :  5.50013e-06
 Reference value :  5.50016e-06
 Reference value :  5.50023e-06
 Reference value :  5.50037e-06
 Reference value :  5.50054e-06
 Reference value :  5.50090e-06
 Reference value :  5.50139e-06
 Reference value :  5.50191e-06
 Reference value :  5.50245e-06
 Reference value :  5.50312e-06
 Reference value :  5.50378e-06
 Reference value :  5.50452e-06
 Reference value :  5.50540e-06
 Reference value :  5.50622e-06
 Reference value :  5.50751e-06
 Reference value :  5.50884e-06
 Reference value :  5.51008e-06
 Reference value :  5.51151e-06
 Reference value :  5.51284e-06
 Reference value :  5.51422e-06
 Reference value :  5.51576e-06
 Reference value :  5.51750e-06
 Reference value :  5.52059e-06
 Reference value :  5.52511e-06
 Reference value :  5.53371e-06
 Reference value :  5.54969e-06
 Reference value :  5.57940e-06
 Reference value :  5.63852e-06
 Reference value :  5.75010e-06
 Reference value :  5.75011e-06
 Reference value :  5.75013e-06
 Reference value :  5.75017e-06
 Reference value :  5.75020e-06
 Reference value :  5.75020e-06
 Reference value :  5.75020e-06
 Reference value :  5.75021e-06
 Reference value :  5.75021e-06
 Reference value :  5.75022e-06
 Reference value :  5.75025e-06
 Reference value :  5.75029e-06
 Reference value :  5.75039e-06
 Reference value :  5.75058e-06
 Reference value :  5.75091e-06
 Reference value :  5.75140e-06
 Reference value :  5.75204e-06
 Reference value :  5.75261e-06
 Reference value :  5.75330e-06
 Reference value :  5.75414e-06
 Reference value :  5.75474e-06
 Reference value :  5.75544e-06
 Reference value :  5.75612e-06
 Reference value :  5.75685e-06
 Reference value :  5.75779e-06
 Reference value :  5.75884e-06
 Reference value :  5.76093e-06
 Reference value :  5.76309e-06
 Reference value :  5.76685e-06
 Reference value :  5.77163e-06
 Reference value :  5.78118e-06
 Reference value :  5.80028e-06
 Reference value :  5.83848e-06
 Reference value :  5.91488e-06
 Reference value :  6.00000e-06
 Reference value :  6.00001e-06
 Reference value :  6.00003e-06
 Reference value :  6.00007e-06
 Reference value :  6.00010e-06
 Reference value :  6.00010e-06
 Reference value :  6.00011e-06
 Reference value :  6.00013e-06
 Reference value :  6.00016e-06
 Reference value :  6.00023e-06
 Reference value :  6.00036e-06
 Reference value :  6.00054e-06
 Reference value :  6.00089e-06
 Reference value :  6.00139e-06
 Reference value :  6.00190e-06
 Reference value :  6.00243e-06
 Reference value :  6.00310e-06
 Reference value :  6.00375e-06
 Reference value :  6.00453e-06
 Reference value :  6.00519e-06
 Reference value :  6.00590e-06
 Reference value :  6.00668e-06
 Reference value :  6.00744e-06
 Reference value :  6.00827e-06
 Reference value :  6.00942e-06
 Reference value :  6.01067e-06
 Reference value :  6.01277e-06
 Reference value :  6.01535e-06
 Reference value :  6.01727e-06
 Reference value :  6.01939e-06
 Reference value :  6.02101e-06
 Reference value :  6.02260e-06
 Reference value :  6.02414e-06
 Reference value :  6.02606e-06
 Reference value :  6.02793e-06
 Reference value :  6.03041e-06
 Reference value :  6.03383e-06
 Reference value :  6.03906e-06
 Reference value :  6.04754e-06
 Reference value :  6.05634e-06
 Reference value :  6.07126e-06
 Reference value :  6.08752e-06
 Reference value :  6.11149e-06
 Reference value :  6.14615e-06
 Reference value :  6.19529e-06
 Reference value :  6.24419e-06
 Reference value :  6.25010e-06
 Reference value :  6.25011e-06
 Reference value :  6.25013e-06
 Reference value :  6.25017e-06
 Reference value :  6.25020e-06
 Reference value :  6.25020e-06
 Reference value :  6.25020e-06
 Reference value :  6.25021e-06
 Reference value :  6.25021e-06
 Reference value :  6.25022e-06
 Reference value :  6.25025e-06
 Reference value :  6.25029e-06
 Reference value :  6.25039e-06
 Reference value :  6.25057e-06
 Reference value :  6.25090e-06
 Reference value :  6.25139e-06
 Reference value :  6.25202e-06
 Reference value :  6.25260e-06
 Reference value :  6.25328e-06
 Reference value :  6.25412e-06
 Reference value :  6.25473e-06
 Reference value :  6.25544e-06
 Reference value :  6.25637e-06
 Reference value :  6.25724e-06
 Reference value :  6.25836e-06
 Reference value :  6.26036e-06
 Reference value :  6.26232e-06
 Reference value :  6.26558e-06
 Reference value :  6.26957e-06
 Reference value :  6.27756e-06
 Reference value :  6.29353e-06
 Reference value :  6.32548e-06
 Reference value :  6.38937e-06
 Reference value :  6.50000e-06
 Reference value :  6.50001e-06
 Reference value :  6.50003e-06
 Reference value :  6.50007e-06
 Reference value :  6.50010e-06
 Reference value :  6.50010e-06
 Reference value :  6.50011e-06
 Reference value :  6.50013e-06
 Reference value :  6.50016e-06
 Reference value :  6.50023e-06
 Reference value :  6.50037e-06
 Reference value :  6.50054e-06
 Reference value :  6.50090e-06
 Reference value :  6.50139e-06
 Reference value :  6.50191e-06
 Reference value :  6.50245e-06
 Reference value :  6.50311e-06
 Reference value :  6.50378e-06
 Reference value :  6.50453e-06
 Reference value :  6.50538e-06
 Reference value :  6.50621e-06
 Reference value :  6.50735e-06
 Reference value :  6.50873e-06
 Reference value :  6.50992e-06
 Reference value :  6.51116e-06
 Reference value :  6.51229e-06
 Reference value :  6.51360e-06
 Reference value :  6.51491e-06
 Reference value :  6.51642e-06
 Reference value :  6.51943e-06
 Reference value :  6.52546e-06
 Reference value :  6.53618e-06
 Reference value :  6.55763e-06
 Reference value :  6.60053e-06
 Reference value :  6.68631e-06
 Reference value :  6.75010e-06
 Reference value :  6.75011e-06
 Reference value :  6.75013e-06
 Reference value :  6.75017e-06
 Reference value :  6.75020e-06
 Reference value :  6.75020e-06
 Reference value :  6.75020e-06
 Reference value :  6.75021e-06
 Reference value :  6.75021e-06
 Reference value :  6.75022e-06
 Reference value :  6.75025e-06
 Reference value :  6.75029e-06
 Reference value :  6.75039e-06
 Reference value :  6.75058e-06
 Reference value :  6.75091e-06
 Reference value :  6.75141e-06
 Reference value :  6.75204e-06
 Reference value :  6.75262e-06
 Reference value :  6.75330e-06
 Reference value :  6.75414e-06
 Reference value :  6.75475e-06
 Reference value :  6.75544e-06
 Reference value :  6.75613e-06
 Reference value :  6.75686e-06
 Reference value :  6.75781e-06
 Reference value :  6.75887e-06
 Reference value :  6.76097e-06
 Reference value :  6.76315e-06
 Reference value :  6.76694e-06
 Reference value :  6.77179e-06
 Reference value :  6.78147e-06
 Reference value :  6.80084e-06
 Reference value :  6.83958e-06
 Reference value :  6.91706e-06
 Reference value :  7.00000e-06
 Reference value :  7.00001e-06
 Reference value :  7.00003e-06
 Reference value :  7.00007e-06
 Reference value :  7.00010e-06
 Reference value :  7.00010e-06
 Reference value :  7.00011e-06
 Reference value :  7.00013e-06
 Reference value :  7.00016e-06
 Reference value :  7.00023e-06
 Reference value :  7.00036e-06
 Reference value :  7.00054e-06
 Reference value :  7.00089e-06
 Reference value :  7.00139e-06
 Reference value :  7.00190e-06
 Reference value :  7.00243e-06
 Reference value :  7.00310e-06
 Reference value :  7.00375e-06
 Reference value :  7.00453e-06
 Reference value :  7.00519e-06
 Reference value :  7.00590e-06
 Reference value :  7.00670e-06
 Reference value :  7.00746e-06
 Reference value :  7.00829e-06
 Reference value :  7.00953e-06
 Reference value :  7.01070e-06
 Reference value :  7.01288e-06
 Reference value :  7.01546e-06
 Reference value :  7.01740e-06
 Reference value :  7.01954e-06
 Reference value :  7.02111e-06
 Reference value :  7.02279e-06
 Reference value :  7.02435e-06
 Reference value :  7.02631e-06
 Reference value :  7.02819e-06
 Reference value :  7.03069e-06
 Reference value :  7.03409e-06
 Reference value :  7.03926e-06
 Reference value :  7.04403e-06
 Reference value :  7.04915e-06
 Reference value :  7.05428e-06
 Reference value :  7.05902e-06
 Reference value :  7.06456e-06
 Reference value :  7.07243e-06
 Reference value :  7.07976e-06
 Reference value :  7.08811e-06
 Reference value :  7.09633e-06
 Reference value :  7.11277e-06
 Reference value :  7.14125e-06
 Reference value :  7.18855e-06
 Reference value :  7.24487e-06
 Reference value :  7.25010e-06
 Reference value :  7.25011e-06
 Reference value :  7.25013e-06
 Reference value :  7.25017e-06
 Reference value :  7.25020e-06
 Reference value :  7.25020e-06
 Reference value :  7.25020e-06
 Reference value :  7.25021e-06
 Reference value :  7.25021e-06
 Reference value :  7.25022e-06
 Reference value :  7.25025e-06
 Reference value :  7.25029e-06
 Reference value :  7.25039e-06
 Reference value :  7.25058e-06
 Reference value :  7.25092e-06
 Reference value :  7.25141e-06
 Reference value :  7.25198e-06
 Reference value :  7.25258e-06
 Reference value :  7.25322e-06
 Reference value :  7.25406e-06
 Reference value :  7.25465e-06
 Reference value :  7.25534e-06
 Reference value :  7.25622e-06
 Reference value :  7.25711e-06
 Reference value :  7.25818e-06
 Reference value :  7.26018e-06
 Reference value :  7.26205e-06
 Reference value :  7.26516e-06
 Reference value :  7.26898e-06
 Reference value :  7.27664e-06
 Reference value :  7.29195e-06
 Reference value :  7.32082e-06
 Reference value :  7.37856e-06
 Reference value :  7.49329e-06
 Reference value :  7.50000e-06
 Reference value :  7.50001e-06
 Reference value :  7.50003e-06
 Reference value :  7.50007e-06
 Reference value :  7.50010e-06
 Reference value :  7.50010e-06
 Reference value :  7.50011e-06
 Reference value :  7.50013e-06
 Reference value :  7.50016e-06
 Reference value :  7.50023e-06
 Reference value :  7.50036e-06
 Reference value :  7.50054e-06
 Reference value :  7.50090e-06
 Reference value :  7.50141e-06
 Reference value :  7.50193e-06
 Reference value :  7.50246e-06
 Reference value :  7.50308e-06
 Reference value :  7.50376e-06
 Reference value :  7.50456e-06
 Reference value :  7.50541e-06
 Reference value :  7.50631e-06
 Reference value :  7.50757e-06
 Reference value :  7.50906e-06
 Reference value :  7.51041e-06
 Reference value :  7.51180e-06
 Reference value :  7.51308e-06
 Reference value :  7.51447e-06
 Reference value :  7.51596e-06
 Reference value :  7.51766e-06
 Reference value :  7.52081e-06
 Reference value :  7.52534e-06
 Reference value :  7.53430e-06
 Reference value :  7.55099e-06
 Reference value :  7.58248e-06
 Reference value :  7.64546e-06
 Reference value :  7.75010e-06
 Reference value :  7.75011e-06
 Reference value :  7.75013e-06
 Reference value :  7.75017e-06
 Reference value :  7.75020e-06
 Reference value :  7.75020e-06
 Reference value :  7.75020e-06
 Reference value :  7.75021e-06
 Reference value :  7.75021e-06
 Reference value :  7.75022e-06
 Reference value :  7.75025e-06
 Reference value :  7.75029e-06
 Reference value :  7.75039e-06
 Reference value :  7.75058e-06
 Reference value :  7.75092e-06
 Reference value :  7.75141e-06
 Reference value :  7.75198e-06
 Reference value :  7.75258e-06
 Reference value :  7.75322e-06
 Reference value :  7.75406e-06
 Reference value :  7.75467e-06
 Reference value :  7.75537e-06
 Reference value :  7.75603e-06
 Reference value :  7.75675e-06
 Reference value :  7.75766e-06
 Reference value :  7.75867e-06
 Reference value :  7.75970e-06
 Reference value :  7.76119e-06
 Reference value :  7.76287e-06
 Reference value :  7.76517e-06
 Reference value :  7.76804e-06
 Reference value :  7.77231e-06
 Reference value :  7.78086e-06
 Reference value :  7.79793e-06
 Reference value :  7.83208e-06
 Reference value :  7.90036e-06
 Reference value :  8.00000e-06
 Reference value :  8.00001e-06
 Reference value :  8.00003e-06
 Reference value :  8.00007e-06
 Reference value :  8.00010e-06
 Reference value :  8.00010e-06
 Reference value :  8.00011e-06
 Reference value :  8.00013e-06
 Reference value :  8.00016e-06
 Reference value :  8.00023e-06
 Reference value :  8.00036e-06
 Reference value :  8.00054e-06
 Reference value :  8.00090e-06
 Reference value :  8.00141e-06
 Reference value :  8.00193e-06
 Reference value :  8.00248e-06
 Reference value :  8.00314e-06
 Reference value :  8.00383e-06
 Reference value :  8.00461e-06
 Reference value :  8.00525e-06
 Reference value :  8.00594e-06
 Reference value :  8.00661e-06
 Reference value :  8.00738e-06
 Reference value :  8.00810e-06
 Reference value :  8.00920e-06
 Reference value :  8.01025e-06
 Reference value :  8.01192e-06
 Reference value :  8.01319e-06
 Reference value :  8.01454e-06
 Reference value :  8.01594e-06
 Reference value :  8.01750e-06
 Reference value :  8.01915e-06
 Reference value :  8.02133e-06
 Reference value :  8.02415e-06
 Reference value :  8.02695e-06
 Reference value :  8.03089e-06
 Reference value :  8.03816e-06
 Reference value :  8.04767e-06
 Reference value :  8.06160e-06
 Reference value :  8.07784e-06
 Reference value :  8.10597e-06
 Reference value :  8.13558e-06
 Reference value :  8.16862e-06
 Reference value :  8.19225e-06
 Reference value :  8.21456e-06
 Reference value :  8.25010e-06
 Reference value :  8.25011e-06
 Reference value :  8.25013e-06
 Reference value :  8.25017e-06
 Reference value :  8.25020e-06
 Reference value :  8.25020e-06
 Reference value :  8.25020e-06
 Reference value :  8.25021e-06
 Reference value :  8.25021e-06
 Reference value :  8.25022e-06
 Reference value :  8.25025e-06
 Reference value :  8.25029e-06
 Reference value :  8.25039e-06
 Reference value :  8.25058e-06
 Reference value :  8.25096e-06
 Reference value :  8.25143e-06
 Reference value :  8.25198e-06
 Reference value :  8.25258e-06
 Reference value :  8.25322e-06
 Reference value :  8.25404e-06
 Reference value :  8.25495e-06
 Reference value :  8.25612e-06
 Reference value :  8.25752e-06
 Reference value :  8.25885e-06
 Reference value :  8.26110e-06
 Reference value :  8.26351e-06
 Reference value :  8.26729e-06
 Reference value :  8.27291e-06
 Reference value :  8.28415e-06
 Reference value :  8.30663e-06
 Reference value :  8.35160e-06
 Reference value :  8.41665e-06
 Reference value :  8.50000e-06
No. of Data Rows : 1334
ngspice-44 done
