
Note: Compatibility modes selected: hs a


Circuit: ** sch_path: /home/audrey/cace/sar-adc-using-sky130-pdk/runs/run_2025-09-09_12-05-44/parameters/power/run_2/power_consumption.sch

option SCALE: Scale is set to 1e-06 for instance and model parameters
option SCALE: Scale is set to 1e-06 for instance and model parameters
option SCALE: Scale is set to 1e-06 for instance and model parameters
option SCALE: Scale is set to 1e-06 for instance and model parameters
Doing analysis at TEMP = 27.000000 and TNOM = 27.000000

Using KLU as Direct Linear Solver
 Reference value :  0.00000e+00
 Reference value :  2.00000e-12
 Reference value :  4.00000e-12
 Reference value :  8.00000e-12
 Reference value :  3.20000e-11
 Reference value :  6.40000e-11
 Reference value :  1.00000e-10
 Reference value :  1.06400e-10
 Reference value :  1.19200e-10
 Reference value :  1.44800e-10
 Reference value :  1.96000e-10
 Reference value :  2.98400e-10
 Reference value :  4.69054e-10
 Reference value :  7.15201e-10
 Reference value :  9.85386e-10
 Reference value :  1.39979e-09
 Reference value :  1.83838e-09
 Reference value :  2.29408e-09
 Reference value :  2.70331e-09
 Reference value :  3.14649e-09
 Reference value :  3.63908e-09
 Reference value :  4.16426e-09
 Reference value :  4.71156e-09
 Reference value :  5.38715e-09
 Reference value :  6.13546e-09
 Reference value :  6.97404e-09
 Reference value :  7.79022e-09
 Reference value :  8.63819e-09
 Reference value :  9.57296e-09
 Reference value :  1.06000e-08
 Reference value :  1.14552e-08
 Reference value :  1.20571e-08
 Reference value :  1.27237e-08
 Reference value :  1.34944e-08
 Reference value :  1.43079e-08
 Reference value :  1.55972e-08
 Reference value :  1.72841e-08
 Reference value :  1.88497e-08
 Reference value :  2.07033e-08
 Reference value :  2.20269e-08
 Reference value :  2.33069e-08
 Reference value :  2.42211e-08
 Reference value :  2.52796e-08
 Reference value :  2.73965e-08
 Reference value :  3.46960e-08
 Reference value :  3.95490e-08
 Reference value :  4.41762e-08
 Reference value :  4.91331e-08
 Reference value :  5.43746e-08
 Reference value :  6.13153e-08
 Reference value :  7.27384e-08
 Reference value :  8.65044e-08
 Reference value :  1.10102e-07
 Reference value :  1.45192e-07
 Reference value :  2.01979e-07
 Reference value :  2.50110e-07
 Reference value :  2.50130e-07
 Reference value :  2.50200e-07
 Reference value :  2.50207e-07
 Reference value :  2.50220e-07
 Reference value :  2.50247e-07
 Reference value :  2.50300e-07
 Reference value :  2.50406e-07
 Reference value :  2.50518e-07
 Reference value :  2.50961e-07
 Reference value :  2.51401e-07
 Reference value :  2.51806e-07
 Reference value :  2.52878e-07
 Reference value :  2.53555e-07
 Reference value :  2.54090e-07
 Reference value :  2.54682e-07
 Reference value :  2.55259e-07
 Reference value :  2.55971e-07
 Reference value :  2.56725e-07
 Reference value :  2.59396e-07
 Reference value :  2.64726e-07
 Reference value :  2.80528e-07
 Reference value :  3.28213e-07
 Reference value :  4.74765e-07
 Reference value :  5.00000e-07
 Reference value :  5.00030e-07
 Reference value :  5.00070e-07
 Reference value :  5.00100e-07
 Reference value :  5.00124e-07
 Reference value :  5.00156e-07
 Reference value :  5.00220e-07
 Reference value :  5.00348e-07
 Reference value :  5.00857e-07
 Reference value :  5.01627e-07
 Reference value :  5.02095e-07
 Reference value :  5.02570e-07
 Reference value :  5.03086e-07
 Reference value :  5.03660e-07
 Reference value :  5.04229e-07
 Reference value :  5.05807e-07
 Reference value :  5.07186e-07
 Reference value :  5.08676e-07
 Reference value :  5.09874e-07
 Reference value :  5.11201e-07
 Reference value :  5.12534e-07
 Reference value :  5.14214e-07
 Reference value :  5.16035e-07
 Reference value :  5.17960e-07
 Reference value :  5.21787e-07
 Reference value :  5.25679e-07
 Reference value :  5.33463e-07
 Reference value :  5.46790e-07
 Reference value :  6.08034e-07
 Reference value :  7.50100e-07
 Reference value :  7.50110e-07
 Reference value :  7.50130e-07
 Reference value :  7.50200e-07
 Reference value :  7.50224e-07
 Reference value :  7.50256e-07
 Reference value :  7.50320e-07
 Reference value :  7.50448e-07
 Reference value :  7.51109e-07
 Reference value :  7.51576e-07
 Reference value :  7.52040e-07
 Reference value :  7.52526e-07
 Reference value :  7.53260e-07
 Reference value :  7.53780e-07
 Reference value :  7.54364e-07
 Reference value :  7.54924e-07
 Reference value :  7.55513e-07
 Reference value :  7.56349e-07
 Reference value :  7.57213e-07
 Reference value :  7.61201e-07
 Reference value :  7.69824e-07
 Reference value :  7.80670e-07
 Reference value :  8.02360e-07
 Reference value :  8.45742e-07
 Reference value :  1.00000e-06
 Reference value :  1.00003e-06
 Reference value :  1.00010e-06
 Reference value :  1.00011e-06
 Reference value :  1.00016e-06
 Reference value :  1.00022e-06
 Reference value :  1.00035e-06
 Reference value :  1.00054e-06
 Reference value :  1.00086e-06
 Reference value :  1.00119e-06
 Reference value :  1.00163e-06
 Reference value :  1.00209e-06
 Reference value :  1.00258e-06
 Reference value :  1.00306e-06
 Reference value :  1.00363e-06
 Reference value :  1.00418e-06
 Reference value :  1.00473e-06
 Reference value :  1.00524e-06
 Reference value :  1.00580e-06
 Reference value :  1.00648e-06
 Reference value :  1.00731e-06
 Reference value :  1.00867e-06
 Reference value :  1.01030e-06
 Reference value :  1.01189e-06
 Reference value :  1.01342e-06
 Reference value :  1.01454e-06
 Reference value :  1.01556e-06
 Reference value :  1.01646e-06
 Reference value :  1.01752e-06
 Reference value :  1.01863e-06
 Reference value :  1.01979e-06
 Reference value :  1.02179e-06
 Reference value :  1.02419e-06
 Reference value :  1.02899e-06
 Reference value :  1.03849e-06
 Reference value :  1.05496e-06
 Reference value :  1.07640e-06
 Reference value :  1.09861e-06
 Reference value :  1.12103e-06
 Reference value :  1.13254e-06
 Reference value :  1.14144e-06
 Reference value :  1.15124e-06
 Reference value :  1.16046e-06
 Reference value :  1.16811e-06
 Reference value :  1.17605e-06
 Reference value :  1.20171e-06
 Reference value :  1.22233e-06
 Reference value :  1.25010e-06
 Reference value :  1.25011e-06
 Reference value :  1.25013e-06
 Reference value :  1.25017e-06
 Reference value :  1.25020e-06
 Reference value :  1.25022e-06
 Reference value :  1.25026e-06
 Reference value :  1.25045e-06
 Reference value :  1.25070e-06
 Reference value :  1.25110e-06
 Reference value :  1.25157e-06
 Reference value :  1.25203e-06
 Reference value :  1.25252e-06
 Reference value :  1.25325e-06
 Reference value :  1.25376e-06
 Reference value :  1.25433e-06
 Reference value :  1.25500e-06
 Reference value :  1.25645e-06
 Reference value :  1.25795e-06
 Reference value :  1.26242e-06
 Reference value :  1.27241e-06
 Reference value :  1.31236e-06
 Reference value :  1.36562e-06
 Reference value :  1.47216e-06
 Reference value :  1.50000e-06
 Reference value :  1.50003e-06
 Reference value :  1.50007e-06
 Reference value :  1.50010e-06
 Reference value :  1.50011e-06
 Reference value :  1.50012e-06
 Reference value :  1.50016e-06
 Reference value :  1.50022e-06
 Reference value :  1.50035e-06
 Reference value :  1.50054e-06
 Reference value :  1.50086e-06
 Reference value :  1.50119e-06
 Reference value :  1.50159e-06
 Reference value :  1.50203e-06
 Reference value :  1.50251e-06
 Reference value :  1.50300e-06
 Reference value :  1.50356e-06
 Reference value :  1.50411e-06
 Reference value :  1.50490e-06
 Reference value :  1.50562e-06
 Reference value :  1.50625e-06
 Reference value :  1.50695e-06
 Reference value :  1.50795e-06
 Reference value :  1.50887e-06
 Reference value :  1.50986e-06
 Reference value :  1.51098e-06
 Reference value :  1.51215e-06
 Reference value :  1.51904e-06
 Reference value :  1.52661e-06
 Reference value :  1.54175e-06
 Reference value :  1.57205e-06
 Reference value :  1.63263e-06
 Reference value :  1.75010e-06
 Reference value :  1.75011e-06
 Reference value :  1.75017e-06
 Reference value :  1.75020e-06
 Reference value :  1.75021e-06
 Reference value :  1.75026e-06
 Reference value :  1.75032e-06
 Reference value :  1.75045e-06
 Reference value :  1.75070e-06
 Reference value :  1.75110e-06
 Reference value :  1.75157e-06
 Reference value :  1.75203e-06
 Reference value :  1.75252e-06
 Reference value :  1.75325e-06
 Reference value :  1.75377e-06
 Reference value :  1.75436e-06
 Reference value :  1.75491e-06
 Reference value :  1.75549e-06
 Reference value :  1.75624e-06
 Reference value :  1.75705e-06
 Reference value :  1.75788e-06
 Reference value :  1.75891e-06
 Reference value :  1.76052e-06
 Reference value :  1.76493e-06
 Reference value :  1.77447e-06
 Reference value :  1.80519e-06
 Reference value :  1.92245e-06
 Reference value :  2.00001e-06
 Reference value :  2.00007e-06
 Reference value :  2.00011e-06
 Reference value :  2.00012e-06
 Reference value :  2.00016e-06
 Reference value :  2.00022e-06
 Reference value :  2.00054e-06
 Reference value :  2.00086e-06
 Reference value :  2.00119e-06
 Reference value :  2.00163e-06
 Reference value :  2.00209e-06
 Reference value :  2.00258e-06
 Reference value :  2.00308e-06
 Reference value :  2.00364e-06
 Reference value :  2.00419e-06
 Reference value :  2.00470e-06
 Reference value :  2.00519e-06
 Reference value :  2.00639e-06
 Reference value :  2.00710e-06
 Reference value :  2.00807e-06
 Reference value :  2.00921e-06
 Reference value :  2.01010e-06
 Reference value :  2.01104e-06
 Reference value :  2.01197e-06
 Reference value :  2.01299e-06
 Reference value :  2.01371e-06
 Reference value :  2.01441e-06
 Reference value :  2.01527e-06
 Reference value :  2.01619e-06
 Reference value :  2.01710e-06
 Reference value :  2.01806e-06
 Reference value :  2.01908e-06
 Reference value :  2.02092e-06
 Reference value :  2.02267e-06
 Reference value :  2.02584e-06
 Reference value :  2.03218e-06
 Reference value :  2.04046e-06
 Reference value :  2.05701e-06
 Reference value :  2.08990e-06
 Reference value :  2.12481e-06
 Reference value :  2.15636e-06
 Reference value :  2.18333e-06
 Reference value :  2.20212e-06
 Reference value :  2.21942e-06
 Reference value :  2.23606e-06
 Reference value :  2.25010e-06
 Reference value :  2.25011e-06
 Reference value :  2.25013e-06
 Reference value :  2.25017e-06
 Reference value :  2.25020e-06
 Reference value :  2.25021e-06
 Reference value :  2.25022e-06
 Reference value :  2.25026e-06
 Reference value :  2.25032e-06
 Reference value :  2.25045e-06
 Reference value :  2.25070e-06
 Reference value :  2.25110e-06
 Reference value :  2.25157e-06
 Reference value :  2.25203e-06
 Reference value :  2.25251e-06
 Reference value :  2.25324e-06
 Reference value :  2.25378e-06
 Reference value :  2.25438e-06
 Reference value :  2.25502e-06
 Reference value :  2.25568e-06
 Reference value :  2.25646e-06
 Reference value :  2.25803e-06
 Reference value :  2.25967e-06
 Reference value :  2.26254e-06
 Reference value :  2.26586e-06
 Reference value :  2.27250e-06
 Reference value :  2.28579e-06
 Reference value :  2.31237e-06
 Reference value :  2.36554e-06
 Reference value :  2.47186e-06
 Reference value :  2.50000e-06
 Reference value :  2.50001e-06
 Reference value :  2.50003e-06
 Reference value :  2.50007e-06
 Reference value :  2.50010e-06
 Reference value :  2.50011e-06
 Reference value :  2.50012e-06
 Reference value :  2.50016e-06
 Reference value :  2.50022e-06
 Reference value :  2.50035e-06
 Reference value :  2.50054e-06
 Reference value :  2.50086e-06
 Reference value :  2.50119e-06
 Reference value :  2.50163e-06
 Reference value :  2.50210e-06
 Reference value :  2.50258e-06
 Reference value :  2.50307e-06
 Reference value :  2.50363e-06
 Reference value :  2.50418e-06
 Reference value :  2.50488e-06
 Reference value :  2.50568e-06
 Reference value :  2.50630e-06
 Reference value :  2.50702e-06
 Reference value :  2.50793e-06
 Reference value :  2.50889e-06
 Reference value :  2.50982e-06
 Reference value :  2.51093e-06
 Reference value :  2.51209e-06
 Reference value :  2.51441e-06
 Reference value :  2.51899e-06
 Reference value :  2.52660e-06
 Reference value :  2.54182e-06
 Reference value :  2.57225e-06
 Reference value :  2.75010e-06
 Reference value :  2.75011e-06
 Reference value :  2.75013e-06
 Reference value :  2.75017e-06
 Reference value :  2.75020e-06
 Reference value :  2.75021e-06
 Reference value :  2.75022e-06
 Reference value :  2.75032e-06
 Reference value :  2.75045e-06
 Reference value :  2.75070e-06
 Reference value :  2.75110e-06
 Reference value :  2.75157e-06
 Reference value :  2.75203e-06
 Reference value :  2.75251e-06
 Reference value :  2.75325e-06
 Reference value :  2.75377e-06
 Reference value :  2.75436e-06
 Reference value :  2.75491e-06
 Reference value :  2.75549e-06
 Reference value :  2.75636e-06
 Reference value :  2.75726e-06
 Reference value :  2.75902e-06
 Reference value :  2.76129e-06
 Reference value :  2.76454e-06
 Reference value :  2.77014e-06
 Reference value :  2.78134e-06
 Reference value :  2.80374e-06
 Reference value :  2.84854e-06
 Reference value :  2.93813e-06
 Reference value :  3.00000e-06
 Reference value :  3.00001e-06
 Reference value :  3.00003e-06
 Reference value :  3.00007e-06
 Reference value :  3.00010e-06
 Reference value :  3.00011e-06
 Reference value :  3.00012e-06
 Reference value :  3.00016e-06
 Reference value :  3.00022e-06
 Reference value :  3.00035e-06
 Reference value :  3.00054e-06
 Reference value :  3.00086e-06
 Reference value :  3.00119e-06
 Reference value :  3.00163e-06
 Reference value :  3.00210e-06
 Reference value :  3.00258e-06
 Reference value :  3.00307e-06
 Reference value :  3.00364e-06
 Reference value :  3.00418e-06
 Reference value :  3.00473e-06
 Reference value :  3.00524e-06
 Reference value :  3.00580e-06
 Reference value :  3.00649e-06
 Reference value :  3.00732e-06
 Reference value :  3.00866e-06
 Reference value :  3.01029e-06
 Reference value :  3.01187e-06
 Reference value :  3.01341e-06
 Reference value :  3.01454e-06
 Reference value :  3.01557e-06
 Reference value :  3.01647e-06
 Reference value :  3.01754e-06
 Reference value :  3.01864e-06
 Reference value :  3.01982e-06
 Reference value :  3.02181e-06
 Reference value :  3.02423e-06
 Reference value :  3.02907e-06
 Reference value :  3.03375e-06
 Reference value :  3.03906e-06
 Reference value :  3.04456e-06
 Reference value :  3.04984e-06
 Reference value :  3.05463e-06
 Reference value :  3.05991e-06
 Reference value :  3.07140e-06
 Reference value :  3.08535e-06
 Reference value :  3.09294e-06
 Reference value :  3.10812e-06
 Reference value :  3.18133e-06
 Reference value :  3.22944e-06
 Reference value :  3.25010e-06
 Reference value :  3.25011e-06
 Reference value :  3.25013e-06
 Reference value :  3.25017e-06
 Reference value :  3.25020e-06
 Reference value :  3.25021e-06
 Reference value :  3.25022e-06
 Reference value :  3.25026e-06
 Reference value :  3.25032e-06
 Reference value :  3.25045e-06
 Reference value :  3.25070e-06
 Reference value :  3.25109e-06
 Reference value :  3.25157e-06
 Reference value :  3.25203e-06
 Reference value :  3.25251e-06
 Reference value :  3.25324e-06
 Reference value :  3.25375e-06
 Reference value :  3.25432e-06
 Reference value :  3.25501e-06
 Reference value :  3.25570e-06
 Reference value :  3.25647e-06
 Reference value :  3.25800e-06
 Reference value :  3.26250e-06
 Reference value :  3.27248e-06
 Reference value :  3.28580e-06
 Reference value :  3.36567e-06
 Reference value :  3.47217e-06
 Reference value :  3.50001e-06
 Reference value :  3.50003e-06
 Reference value :  3.50007e-06
 Reference value :  3.50010e-06
 Reference value :  3.50012e-06
 Reference value :  3.50016e-06
 Reference value :  3.50022e-06
 Reference value :  3.50035e-06
 Reference value :  3.50054e-06
 Reference value :  3.50086e-06
 Reference value :  3.50119e-06
 Reference value :  3.50159e-06
 Reference value :  3.50204e-06
 Reference value :  3.50251e-06
 Reference value :  3.50300e-06
 Reference value :  3.50356e-06
 Reference value :  3.50411e-06
 Reference value :  3.50490e-06
 Reference value :  3.50562e-06
 Reference value :  3.50625e-06
 Reference value :  3.50695e-06
 Reference value :  3.50795e-06
 Reference value :  3.50887e-06
 Reference value :  3.50986e-06
 Reference value :  3.51099e-06
 Reference value :  3.51216e-06
 Reference value :  3.51901e-06
 Reference value :  3.52652e-06
 Reference value :  3.54155e-06
 Reference value :  3.57159e-06
 Reference value :  3.63168e-06
 Reference value :  3.75010e-06
 Reference value :  3.75011e-06
 Reference value :  3.75013e-06
 Reference value :  3.75017e-06
 Reference value :  3.75021e-06
 Reference value :  3.75022e-06
 Reference value :  3.75032e-06
 Reference value :  3.75045e-06
 Reference value :  3.75070e-06
 Reference value :  3.75109e-06
 Reference value :  3.75157e-06
 Reference value :  3.75203e-06
 Reference value :  3.75251e-06
 Reference value :  3.75324e-06
 Reference value :  3.75377e-06
 Reference value :  3.75436e-06
 Reference value :  3.75490e-06
 Reference value :  3.75548e-06
 Reference value :  3.75623e-06
 Reference value :  3.75704e-06
 Reference value :  3.75786e-06
 Reference value :  3.75889e-06
 Reference value :  3.76043e-06
 Reference value :  3.76207e-06
 Reference value :  3.76479e-06
 Reference value :  3.77430e-06
 Reference value :  3.78476e-06
 Reference value :  3.83818e-06
 Reference value :  3.90941e-06
 Reference value :  4.00000e-06
 Reference value :  4.00001e-06
 Reference value :  4.00003e-06
 Reference value :  4.00007e-06
 Reference value :  4.00011e-06
 Reference value :  4.00012e-06
 Reference value :  4.00016e-06
 Reference value :  4.00022e-06
 Reference value :  4.00035e-06
 Reference value :  4.00054e-06
 Reference value :  4.00086e-06
 Reference value :  4.00119e-06
 Reference value :  4.00163e-06
 Reference value :  4.00209e-06
 Reference value :  4.00258e-06
 Reference value :  4.00308e-06
 Reference value :  4.00364e-06
 Reference value :  4.00419e-06
 Reference value :  4.00471e-06
 Reference value :  4.00519e-06
 Reference value :  4.00574e-06
 Reference value :  4.00640e-06
 Reference value :  4.00710e-06
 Reference value :  4.00807e-06
 Reference value :  4.00921e-06
 Reference value :  4.01010e-06
 Reference value :  4.01105e-06
 Reference value :  4.01197e-06
 Reference value :  4.01298e-06
 Reference value :  4.01370e-06
 Reference value :  4.01440e-06
 Reference value :  4.01525e-06
 Reference value :  4.01617e-06
 Reference value :  4.01707e-06
 Reference value :  4.01802e-06
 Reference value :  4.01903e-06
 Reference value :  4.02078e-06
 Reference value :  4.02255e-06
 Reference value :  4.03152e-06
 Reference value :  4.03946e-06
 Reference value :  4.04806e-06
 Reference value :  4.05613e-06
 Reference value :  4.06149e-06
 Reference value :  4.06673e-06
 Reference value :  4.07050e-06
 Reference value :  4.07442e-06
 Reference value :  4.08115e-06
 Reference value :  4.08731e-06
 Reference value :  4.10672e-06
 Reference value :  4.12207e-06
 Reference value :  4.14706e-06
 Reference value :  4.18416e-06
 Reference value :  4.23770e-06
 Reference value :  4.25010e-06
 Reference value :  4.25011e-06
 Reference value :  4.25013e-06
 Reference value :  4.25017e-06
 Reference value :  4.25020e-06
 Reference value :  4.25021e-06
 Reference value :  4.25022e-06
 Reference value :  4.25032e-06
 Reference value :  4.25045e-06
 Reference value :  4.25109e-06
 Reference value :  4.25156e-06
 Reference value :  4.25203e-06
 Reference value :  4.25251e-06
 Reference value :  4.25324e-06
 Reference value :  4.25377e-06
 Reference value :  4.25438e-06
 Reference value :  4.25501e-06
 Reference value :  4.25567e-06
 Reference value :  4.25803e-06
 Reference value :  4.25965e-06
 Reference value :  4.26252e-06
 Reference value :  4.27240e-06
 Reference value :  4.31195e-06
 Reference value :  4.36467e-06
 Reference value :  4.47012e-06
 Reference value :  4.50000e-06
 Reference value :  4.50001e-06
 Reference value :  4.50007e-06
 Reference value :  4.50011e-06
 Reference value :  4.50016e-06
 Reference value :  4.50022e-06
 Reference value :  4.50035e-06
 Reference value :  4.50054e-06
 Reference value :  4.50086e-06
 Reference value :  4.50119e-06
 Reference value :  4.50163e-06
 Reference value :  4.50210e-06
 Reference value :  4.50258e-06
 Reference value :  4.50307e-06
 Reference value :  4.50363e-06
 Reference value :  4.50418e-06
 Reference value :  4.50488e-06
 Reference value :  4.50568e-06
 Reference value :  4.50630e-06
 Reference value :  4.50702e-06
 Reference value :  4.50794e-06
 Reference value :  4.50889e-06
 Reference value :  4.50982e-06
 Reference value :  4.51093e-06
 Reference value :  4.51209e-06
 Reference value :  4.51441e-06
 Reference value :  4.51898e-06
 Reference value :  4.52655e-06
 Reference value :  4.54168e-06
 Reference value :  4.57194e-06
 Reference value :  4.63247e-06
 Reference value :  4.75011e-06
 Reference value :  4.75013e-06
 Reference value :  4.75017e-06
 Reference value :  4.75020e-06
 Reference value :  4.75021e-06
 Reference value :  4.75022e-06
 Reference value :  4.75026e-06
 Reference value :  4.75032e-06
 Reference value :  4.75045e-06
 Reference value :  4.75070e-06
 Reference value :  4.75109e-06
 Reference value :  4.75156e-06
 Reference value :  4.75203e-06
 Reference value :  4.75251e-06
 Reference value :  4.75324e-06
 Reference value :  4.75377e-06
 Reference value :  4.75436e-06
 Reference value :  4.75490e-06
 Reference value :  4.75548e-06
 Reference value :  4.75635e-06
 Reference value :  4.75724e-06
 Reference value :  4.75900e-06
 Reference value :  4.76126e-06
 Reference value :  4.76449e-06
 Reference value :  4.77002e-06
 Reference value :  4.78109e-06
 Reference value :  4.80322e-06
 Reference value :  4.84749e-06
 Reference value :  4.93604e-06
 Reference value :  5.00000e-06
 Reference value :  5.00001e-06
 Reference value :  5.00003e-06
 Reference value :  5.00007e-06
 Reference value :  5.00010e-06
 Reference value :  5.00011e-06
 Reference value :  5.00012e-06
 Reference value :  5.00016e-06
 Reference value :  5.00022e-06
 Reference value :  5.00035e-06
 Reference value :  5.00054e-06
 Reference value :  5.00086e-06
 Reference value :  5.00119e-06
 Reference value :  5.00163e-06
 Reference value :  5.00210e-06
 Reference value :  5.00258e-06
 Reference value :  5.00307e-06
 Reference value :  5.00364e-06
 Reference value :  5.00418e-06
 Reference value :  5.00473e-06
 Reference value :  5.00524e-06
 Reference value :  5.00580e-06
 Reference value :  5.00649e-06
 Reference value :  5.00732e-06
 Reference value :  5.00866e-06
 Reference value :  5.01030e-06
 Reference value :  5.01188e-06
 Reference value :  5.01341e-06
 Reference value :  5.01454e-06
 Reference value :  5.01557e-06
 Reference value :  5.01646e-06
 Reference value :  5.01753e-06
 Reference value :  5.01864e-06
 Reference value :  5.01981e-06
 Reference value :  5.02181e-06
 Reference value :  5.02423e-06
 Reference value :  5.02848e-06
 Reference value :  5.03250e-06
 Reference value :  5.03718e-06
 Reference value :  5.04215e-06
 Reference value :  5.04587e-06
 Reference value :  5.04988e-06
 Reference value :  5.05378e-06
 Reference value :  5.05814e-06
 Reference value :  5.06407e-06
 Reference value :  5.07010e-06
 Reference value :  5.08365e-06
 Reference value :  5.09383e-06
 Reference value :  5.10881e-06
 Reference value :  5.13537e-06
 Reference value :  5.25010e-06
 Reference value :  5.25011e-06
 Reference value :  5.25013e-06
 Reference value :  5.25017e-06
 Reference value :  5.25020e-06
 Reference value :  5.25022e-06
 Reference value :  5.25026e-06
 Reference value :  5.25032e-06
 Reference value :  5.25045e-06
 Reference value :  5.25070e-06
 Reference value :  5.25109e-06
 Reference value :  5.25156e-06
 Reference value :  5.25202e-06
 Reference value :  5.25251e-06
 Reference value :  5.25323e-06
 Reference value :  5.25375e-06
 Reference value :  5.25432e-06
 Reference value :  5.25502e-06
 Reference value :  5.25569e-06
 Reference value :  5.25647e-06
 Reference value :  5.25802e-06
 Reference value :  5.25967e-06
 Reference value :  5.26253e-06
 Reference value :  5.26586e-06
 Reference value :  5.28585e-06
 Reference value :  5.31250e-06
 Reference value :  5.47237e-06
 Reference value :  5.50000e-06
 Reference value :  5.50001e-06
 Reference value :  5.50003e-06
 Reference value :  5.50007e-06
 Reference value :  5.50010e-06
 Reference value :  5.50011e-06
 Reference value :  5.50012e-06
 Reference value :  5.50016e-06
 Reference value :  5.50022e-06
 Reference value :  5.50035e-06
 Reference value :  5.50054e-06
 Reference value :  5.50086e-06
 Reference value :  5.50119e-06
 Reference value :  5.50159e-06
 Reference value :  5.50204e-06
 Reference value :  5.50251e-06
 Reference value :  5.50300e-06
 Reference value :  5.50356e-06
 Reference value :  5.50411e-06
 Reference value :  5.50490e-06
 Reference value :  5.50562e-06
 Reference value :  5.50625e-06
 Reference value :  5.50695e-06
 Reference value :  5.50795e-06
 Reference value :  5.50887e-06
 Reference value :  5.50986e-06
 Reference value :  5.51112e-06
 Reference value :  5.51451e-06
 Reference value :  5.52615e-06
 Reference value :  5.54036e-06
 Reference value :  5.62565e-06
 Reference value :  5.73937e-06
 Reference value :  5.75010e-06
 Reference value :  5.75011e-06
 Reference value :  5.75013e-06
 Reference value :  5.75017e-06
 Reference value :  5.75020e-06
 Reference value :  5.75021e-06
 Reference value :  5.75022e-06
 Reference value :  5.75026e-06
 Reference value :  5.75032e-06
 Reference value :  5.75045e-06
 Reference value :  5.75070e-06
 Reference value :  5.75109e-06
 Reference value :  5.75156e-06
 Reference value :  5.75203e-06
 Reference value :  5.75251e-06
 Reference value :  5.75324e-06
 Reference value :  5.75377e-06
 Reference value :  5.75436e-06
 Reference value :  5.75490e-06
 Reference value :  5.75548e-06
 Reference value :  5.75623e-06
 Reference value :  5.75704e-06
 Reference value :  5.75785e-06
 Reference value :  5.75889e-06
 Reference value :  5.76041e-06
 Reference value :  5.76206e-06
 Reference value :  5.76476e-06
 Reference value :  5.76793e-06
 Reference value :  5.77426e-06
 Reference value :  5.78457e-06
 Reference value :  5.80198e-06
 Reference value :  5.83681e-06
 Reference value :  5.90647e-06
 Reference value :  6.00001e-06
 Reference value :  6.00003e-06
 Reference value :  6.00007e-06
 Reference value :  6.00010e-06
 Reference value :  6.00011e-06
 Reference value :  6.00012e-06
 Reference value :  6.00016e-06
 Reference value :  6.00022e-06
 Reference value :  6.00035e-06
 Reference value :  6.00054e-06
 Reference value :  6.00086e-06
 Reference value :  6.00119e-06
 Reference value :  6.00163e-06
 Reference value :  6.00209e-06
 Reference value :  6.00258e-06
 Reference value :  6.00308e-06
 Reference value :  6.00364e-06
 Reference value :  6.00419e-06
 Reference value :  6.00471e-06
 Reference value :  6.00519e-06
 Reference value :  6.00574e-06
 Reference value :  6.00640e-06
 Reference value :  6.00711e-06
 Reference value :  6.00807e-06
 Reference value :  6.00921e-06
 Reference value :  6.01010e-06
 Reference value :  6.01105e-06
 Reference value :  6.01197e-06
 Reference value :  6.01298e-06
 Reference value :  6.01369e-06
 Reference value :  6.01439e-06
 Reference value :  6.01525e-06
 Reference value :  6.01618e-06
 Reference value :  6.01708e-06
 Reference value :  6.01803e-06
 Reference value :  6.02081e-06
 Reference value :  6.02257e-06
 Reference value :  6.02559e-06
 Reference value :  6.02906e-06
 Reference value :  6.03325e-06
 Reference value :  6.03810e-06
 Reference value :  6.04249e-06
 Reference value :  6.04558e-06
 Reference value :  6.04889e-06
 Reference value :  6.05364e-06
 Reference value :  6.06339e-06
 Reference value :  6.08544e-06
 Reference value :  6.13520e-06
 Reference value :  6.24869e-06
 Reference value :  6.25010e-06
 Reference value :  6.25011e-06
 Reference value :  6.25013e-06
 Reference value :  6.25017e-06
 Reference value :  6.25020e-06
 Reference value :  6.25021e-06
 Reference value :  6.25022e-06
 Reference value :  6.25026e-06
 Reference value :  6.25032e-06
 Reference value :  6.25045e-06
 Reference value :  6.25109e-06
 Reference value :  6.25156e-06
 Reference value :  6.25202e-06
 Reference value :  6.25251e-06
 Reference value :  6.25323e-06
 Reference value :  6.25377e-06
 Reference value :  6.25438e-06
 Reference value :  6.25501e-06
 Reference value :  6.25566e-06
 Reference value :  6.25645e-06
 Reference value :  6.25803e-06
 Reference value :  6.25964e-06
 Reference value :  6.26252e-06
 Reference value :  6.26581e-06
 Reference value :  6.27239e-06
 Reference value :  6.28554e-06
 Reference value :  6.31186e-06
 Reference value :  6.36449e-06
 Reference value :  6.46976e-06
 Reference value :  6.50000e-06
 Reference value :  6.50001e-06
 Reference value :  6.50003e-06
 Reference value :  6.50007e-06
 Reference value :  6.50010e-06
 Reference value :  6.50011e-06
 Reference value :  6.50012e-06
 Reference value :  6.50016e-06
 Reference value :  6.50022e-06
 Reference value :  6.50035e-06
 Reference value :  6.50054e-06
 Reference value :  6.50086e-06
 Reference value :  6.50119e-06
 Reference value :  6.50163e-06
 Reference value :  6.50210e-06
 Reference value :  6.50258e-06
 Reference value :  6.50307e-06
 Reference value :  6.50363e-06
 Reference value :  6.50418e-06
 Reference value :  6.50488e-06
 Reference value :  6.50568e-06
 Reference value :  6.50630e-06
 Reference value :  6.50702e-06
 Reference value :  6.50794e-06
 Reference value :  6.50889e-06
 Reference value :  6.50982e-06
 Reference value :  6.51094e-06
 Reference value :  6.51210e-06
 Reference value :  6.51442e-06
 Reference value :  6.51897e-06
 Reference value :  6.52652e-06
 Reference value :  6.54160e-06
 Reference value :  6.63212e-06
 Reference value :  6.75010e-06
 Reference value :  6.75011e-06
 Reference value :  6.75013e-06
 Reference value :  6.75017e-06
 Reference value :  6.75020e-06
 Reference value :  6.75022e-06
 Reference value :  6.75026e-06
 Reference value :  6.75032e-06
 Reference value :  6.75045e-06
 Reference value :  6.75070e-06
 Reference value :  6.75109e-06
 Reference value :  6.75156e-06
 Reference value :  6.75202e-06
 Reference value :  6.75251e-06
 Reference value :  6.75324e-06
 Reference value :  6.75377e-06
 Reference value :  6.75436e-06
 Reference value :  6.75490e-06
 Reference value :  6.75548e-06
 Reference value :  6.75634e-06
 Reference value :  6.75899e-06
 Reference value :  6.76124e-06
 Reference value :  6.76446e-06
 Reference value :  6.76996e-06
 Reference value :  6.80298e-06
 Reference value :  6.84701e-06
 Reference value :  6.93505e-06
 Reference value :  7.00000e-06
 Reference value :  7.00001e-06
 Reference value :  7.00003e-06
 Reference value :  7.00007e-06
 Reference value :  7.00010e-06
 Reference value :  7.00011e-06
 Reference value :  7.00016e-06
 Reference value :  7.00022e-06
 Reference value :  7.00035e-06
 Reference value :  7.00054e-06
 Reference value :  7.00086e-06
 Reference value :  7.00119e-06
 Reference value :  7.00163e-06
 Reference value :  7.00210e-06
 Reference value :  7.00258e-06
 Reference value :  7.00307e-06
 Reference value :  7.00364e-06
 Reference value :  7.00418e-06
 Reference value :  7.00473e-06
 Reference value :  7.00524e-06
 Reference value :  7.00580e-06
 Reference value :  7.00649e-06
 Reference value :  7.00732e-06
 Reference value :  7.00866e-06
 Reference value :  7.01029e-06
 Reference value :  7.01187e-06
 Reference value :  7.01341e-06
 Reference value :  7.01455e-06
 Reference value :  7.01558e-06
 Reference value :  7.01649e-06
 Reference value :  7.01868e-06
 Reference value :  7.01986e-06
 Reference value :  7.02185e-06
 Reference value :  7.02433e-06
 Reference value :  7.02781e-06
 Reference value :  7.03208e-06
 Reference value :  7.03708e-06
 Reference value :  7.04081e-06
 Reference value :  7.04483e-06
 Reference value :  7.05042e-06
 Reference value :  7.05717e-06
 Reference value :  7.06483e-06
 Reference value :  7.07271e-06
 Reference value :  7.08078e-06
 Reference value :  7.09324e-06
 Reference value :  7.11350e-06
 Reference value :  7.14309e-06
 Reference value :  7.20108e-06
 Reference value :  7.25010e-06
 Reference value :  7.25011e-06
 Reference value :  7.25013e-06
 Reference value :  7.25017e-06
 Reference value :  7.25020e-06
 Reference value :  7.25021e-06
 Reference value :  7.25022e-06
 Reference value :  7.25026e-06
 Reference value :  7.25032e-06
 Reference value :  7.25045e-06
 Reference value :  7.25070e-06
 Reference value :  7.25109e-06
 Reference value :  7.25156e-06
 Reference value :  7.25202e-06
 Reference value :  7.25251e-06
 Reference value :  7.25323e-06
 Reference value :  7.25375e-06
 Reference value :  7.25432e-06
 Reference value :  7.25502e-06
 Reference value :  7.25569e-06
 Reference value :  7.25647e-06
 Reference value :  7.25804e-06
 Reference value :  7.25968e-06
 Reference value :  7.26255e-06
 Reference value :  7.26589e-06
 Reference value :  7.27256e-06
 Reference value :  7.28589e-06
 Reference value :  7.31256e-06
 Reference value :  7.36590e-06
 Reference value :  7.47259e-06
 Reference value :  7.50000e-06
 Reference value :  7.50001e-06
 Reference value :  7.50003e-06
 Reference value :  7.50007e-06
 Reference value :  7.50010e-06
 Reference value :  7.50011e-06
 Reference value :  7.50012e-06
 Reference value :  7.50016e-06
 Reference value :  7.50022e-06
 Reference value :  7.50035e-06
 Reference value :  7.50054e-06
 Reference value :  7.50086e-06
 Reference value :  7.50119e-06
 Reference value :  7.50159e-06
 Reference value :  7.50204e-06
 Reference value :  7.50251e-06
 Reference value :  7.50300e-06
 Reference value :  7.50356e-06
 Reference value :  7.50411e-06
 Reference value :  7.50490e-06
 Reference value :  7.50562e-06
 Reference value :  7.50625e-06
 Reference value :  7.50695e-06
 Reference value :  7.50795e-06
 Reference value :  7.50887e-06
 Reference value :  7.50986e-06
 Reference value :  7.51111e-06
 Reference value :  7.51225e-06
 Reference value :  7.51451e-06
 Reference value :  7.51905e-06
 Reference value :  7.52615e-06
 Reference value :  7.54036e-06
 Reference value :  7.56878e-06
 Reference value :  7.62561e-06
 Reference value :  7.73929e-06
 Reference value :  7.75010e-06
 Reference value :  7.75011e-06
 Reference value :  7.75013e-06
 Reference value :  7.75017e-06
 Reference value :  7.75020e-06
 Reference value :  7.75021e-06
 Reference value :  7.75022e-06
 Reference value :  7.75026e-06
 Reference value :  7.75032e-06
 Reference value :  7.75045e-06
 Reference value :  7.75070e-06
 Reference value :  7.75109e-06
 Reference value :  7.75156e-06
 Reference value :  7.75202e-06
 Reference value :  7.75251e-06
 Reference value :  7.75324e-06
 Reference value :  7.75376e-06
 Reference value :  7.75435e-06
 Reference value :  7.75490e-06
 Reference value :  7.75548e-06
 Reference value :  7.75622e-06
 Reference value :  7.75704e-06
 Reference value :  7.75785e-06
 Reference value :  7.75888e-06
 Reference value :  7.76038e-06
 Reference value :  7.76204e-06
 Reference value :  7.76471e-06
 Reference value :  7.76788e-06
 Reference value :  7.77421e-06
 Reference value :  7.78428e-06
 Reference value :  7.80110e-06
 Reference value :  7.83473e-06
 Reference value :  7.90199e-06
 Reference value :  8.00000e-06
 Reference value :  8.00001e-06
 Reference value :  8.00003e-06
 Reference value :  8.00007e-06
 Reference value :  8.00010e-06
 Reference value :  8.00011e-06
 Reference value :  8.00012e-06
 Reference value :  8.00016e-06
 Reference value :  8.00022e-06
 Reference value :  8.00035e-06
 Reference value :  8.00054e-06
 Reference value :  8.00086e-06
 Reference value :  8.00119e-06
 Reference value :  8.00163e-06
 Reference value :  8.00209e-06
 Reference value :  8.00258e-06
 Reference value :  8.00308e-06
 Reference value :  8.00364e-06
 Reference value :  8.00415e-06
 Reference value :  8.00467e-06
 Reference value :  8.00515e-06
 Reference value :  8.00569e-06
 Reference value :  8.00631e-06
 Reference value :  8.00703e-06
 Reference value :  8.00773e-06
 Reference value :  8.00859e-06
 Reference value :  8.00930e-06
 Reference value :  8.01008e-06
 Reference value :  8.01093e-06
 Reference value :  8.01185e-06
 Reference value :  8.01368e-06
 Reference value :  8.01619e-06
 Reference value :  8.01916e-06
 Reference value :  8.02245e-06
 Reference value :  8.02708e-06
 Reference value :  8.03349e-06
 Reference value :  8.04534e-06
 Reference value :  8.05640e-06
 Reference value :  8.07153e-06
 Reference value :  8.08103e-06
 Reference value :  8.09156e-06
 Reference value :  8.10464e-06
 Reference value :  8.12333e-06
 Reference value :  8.14450e-06
 Reference value :  8.16875e-06
 Reference value :  8.21725e-06
 Reference value :  8.25010e-06
 Reference value :  8.25011e-06
 Reference value :  8.25013e-06
 Reference value :  8.25017e-06
 Reference value :  8.25020e-06
 Reference value :  8.25021e-06
 Reference value :  8.25022e-06
 Reference value :  8.25032e-06
 Reference value :  8.25045e-06
 Reference value :  8.25070e-06
 Reference value :  8.25109e-06
 Reference value :  8.25156e-06
 Reference value :  8.25202e-06
 Reference value :  8.25251e-06
 Reference value :  8.25323e-06
 Reference value :  8.25392e-06
 Reference value :  8.25483e-06
 Reference value :  8.25575e-06
 Reference value :  8.25838e-06
 Reference value :  8.26013e-06
 Reference value :  8.26308e-06
 Reference value :  8.26682e-06
 Reference value :  8.27430e-06
 Reference value :  8.31915e-06
 Reference value :  8.37895e-06
 Reference value :  8.49856e-06
No. of Data Rows : 1271
ngspice-44 done
