
Note: Compatibility modes selected: hs a


Circuit: ** sch_path: /home/ece/cace/sar-adc-using-sky130-pdk/runs/run_2025-09-12_20-57-31/parameters/dnl/run_1/sar_output_dnl.sch

option SCALE: Scale is set to 1e-06 for instance and model parameters
option SCALE: Scale is set to 1e-06 for instance and model parameters
option SCALE: Scale is set to 1e-06 for instance and model parameters
option SCALE: Scale is set to 1e-06 for instance and model parameters
Doing analysis at TEMP = 27.000000 and TNOM = 27.000000

Using KLU as Direct Linear Solver
Operating point simulation skipped by 'uic',
  now using transient initial conditions.
 Reference value :  1.00000e-12
 Reference value :  1.08400e-12
 Reference value :  1.70013e-12
 Reference value :  6.23783e-12
 Reference value :  1.94120e-11
 Reference value :  1.00000e-10
 Reference value :  1.33240e-10
 Reference value :  2.47206e-10
 Reference value :  6.38333e-10
 Reference value :  1.33364e-09
 Reference value :  3.29417e-09
 Reference value :  5.26904e-09
 Reference value :  7.09136e-09
 Reference value :  7.72870e-09
 Reference value :  9.67781e-09
 Reference value :  1.30259e-08
 Reference value :  1.45560e-08
 Reference value :  1.62961e-08
 Reference value :  2.37518e-08
 Reference value :  3.52510e-08
 Reference value :  8.21076e-08
 Reference value :  2.50110e-07
 Reference value :  2.50207e-07
 Reference value :  2.50312e-07
 Reference value :  2.50746e-07
 Reference value :  2.51960e-07
 Reference value :  2.53984e-07
 Reference value :  2.54569e-07
 Reference value :  2.56006e-07
 Reference value :  2.59331e-07
 Reference value :  2.67473e-07
 Reference value :  3.96293e-07
 Reference value :  5.00030e-07
 Reference value :  5.00124e-07
 Reference value :  5.00520e-07
 Reference value :  5.01299e-07
 Reference value :  5.02238e-07
 Reference value :  5.04003e-07
 Reference value :  5.05394e-07
 Reference value :  5.09177e-07
 Reference value :  5.13348e-07
 Reference value :  5.16414e-07
 Reference value :  5.23049e-07
 Reference value :  6.08903e-07
 Reference value :  7.50130e-07
 Reference value :  7.50208e-07
 Reference value :  7.50319e-07
 Reference value :  7.51066e-07
 Reference value :  7.52558e-07
 Reference value :  7.54677e-07
 Reference value :  7.56988e-07
 Reference value :  7.82521e-07
 Reference value :  1.00003e-06
 Reference value :  1.00016e-06
 Reference value :  1.00086e-06
 Reference value :  1.00224e-06
 Reference value :  1.00458e-06
 Reference value :  1.00642e-06
 Reference value :  1.01057e-06
 Reference value :  1.01401e-06
 Reference value :  1.01800e-06
 Reference value :  1.02033e-06
 Reference value :  1.02882e-06
 Reference value :  1.04157e-06
 Reference value :  1.04823e-06
 Reference value :  1.05411e-06
 Reference value :  1.06019e-06
 Reference value :  1.07484e-06
 Reference value :  1.11401e-06
 Reference value :  1.25011e-06
 Reference value :  1.25020e-06
 Reference value :  1.25032e-06
 Reference value :  1.25106e-06
 Reference value :  1.25203e-06
 Reference value :  1.25402e-06
 Reference value :  1.25535e-06
 Reference value :  1.25699e-06
 Reference value :  1.26549e-06
 Reference value :  1.33449e-06
 Reference value :  1.50001e-06
 Reference value :  1.50010e-06
 Reference value :  1.50016e-06
 Reference value :  1.50052e-06
 Reference value :  1.50130e-06
 Reference value :  1.50221e-06
 Reference value :  1.50332e-06
 Reference value :  1.50485e-06
 Reference value :  1.50674e-06
 Reference value :  1.50753e-06
 Reference value :  1.50946e-06
 Reference value :  1.51277e-06
 Reference value :  1.52875e-06
 Reference value :  1.62201e-06
 Reference value :  1.75013e-06
 Reference value :  1.75021e-06
 Reference value :  1.75032e-06
 Reference value :  1.75070e-06
 Reference value :  1.75153e-06
 Reference value :  1.75255e-06
 Reference value :  1.75404e-06
 Reference value :  1.75533e-06
 Reference value :  1.75698e-06
 Reference value :  1.75887e-06
 Reference value :  1.76319e-06
 Reference value :  1.78399e-06
 Reference value :  1.85805e-06
 Reference value :  2.00003e-06
 Reference value :  2.00011e-06
 Reference value :  2.00022e-06
 Reference value :  2.00086e-06
 Reference value :  2.00130e-06
 Reference value :  2.00224e-06
 Reference value :  2.00403e-06
 Reference value :  2.00457e-06
 Reference value :  2.00583e-06
 Reference value :  2.00644e-06
 Reference value :  2.00801e-06
 Reference value :  2.01046e-06
 Reference value :  2.01145e-06
 Reference value :  2.01377e-06
 Reference value :  2.01612e-06
 Reference value :  2.01835e-06
 Reference value :  2.02083e-06
 Reference value :  2.02659e-06
 Reference value :  2.05115e-06
 Reference value :  2.16960e-06
 Reference value :  2.25010e-06
 Reference value :  2.25017e-06
 Reference value :  2.25022e-06
 Reference value :  2.25045e-06
 Reference value :  2.25152e-06
 Reference value :  2.25255e-06
 Reference value :  2.25403e-06
 Reference value :  2.25530e-06
 Reference value :  2.25684e-06
 Reference value :  2.26164e-06
 Reference value :  2.29875e-06
 Reference value :  2.50001e-06
 Reference value :  2.50010e-06
 Reference value :  2.50022e-06
 Reference value :  2.50086e-06
 Reference value :  2.50177e-06
 Reference value :  2.50270e-06
 Reference value :  2.50405e-06
 Reference value :  2.50674e-06
 Reference value :  2.50754e-06
 Reference value :  2.50947e-06
 Reference value :  2.51277e-06
 Reference value :  2.52086e-06
 Reference value :  2.61922e-06
 Reference value :  2.75011e-06
 Reference value :  2.75020e-06
 Reference value :  2.75032e-06
 Reference value :  2.75106e-06
 Reference value :  2.75202e-06
 Reference value :  2.75403e-06
 Reference value :  2.75533e-06
 Reference value :  2.75786e-06
 Reference value :  2.76125e-06
 Reference value :  2.77512e-06
 Reference value :  2.85713e-06
 Reference value :  3.00001e-06
 Reference value :  3.00007e-06
 Reference value :  3.00012e-06
 Reference value :  3.00035e-06
 Reference value :  3.00130e-06
 Reference value :  3.00224e-06
 Reference value :  3.00341e-06
 Reference value :  3.00457e-06
 Reference value :  3.00583e-06
 Reference value :  3.00644e-06
 Reference value :  3.00801e-06
 Reference value :  3.01047e-06
 Reference value :  3.01145e-06
 Reference value :  3.01377e-06
 Reference value :  3.01613e-06
 Reference value :  3.01838e-06
 Reference value :  3.02092e-06
 Reference value :  3.02682e-06
 Reference value :  3.05290e-06
 Reference value :  3.08823e-06
 Reference value :  3.10524e-06
 Reference value :  3.12255e-06
 Reference value :  3.13234e-06
 Reference value :  3.16987e-06
 Reference value :  3.24326e-06
 Reference value :  3.25013e-06
 Reference value :  3.25021e-06
 Reference value :  3.25032e-06
 Reference value :  3.25106e-06
 Reference value :  3.25203e-06
 Reference value :  3.25406e-06
 Reference value :  3.25536e-06
 Reference value :  3.25785e-06
 Reference value :  3.27102e-06
 Reference value :  3.30562e-06
 Reference value :  3.32200e-06
 Reference value :  3.38153e-06
 Reference value :  3.48211e-06
 Reference value :  3.50003e-06
 Reference value :  3.50011e-06
 Reference value :  3.50035e-06
 Reference value :  3.50130e-06
 Reference value :  3.50221e-06
 Reference value :  3.50405e-06
 Reference value :  3.50674e-06
 Reference value :  3.50754e-06
 Reference value :  3.50947e-06
 Reference value :  3.51158e-06
 Reference value :  3.51412e-06
 Reference value :  3.52850e-06
 Reference value :  3.61789e-06
 Reference value :  3.75011e-06
 Reference value :  3.75020e-06
 Reference value :  3.75032e-06
 Reference value :  3.75105e-06
 Reference value :  3.75202e-06
 Reference value :  3.75326e-06
 Reference value :  3.75464e-06
 Reference value :  3.75695e-06
 Reference value :  3.75995e-06
 Reference value :  3.76545e-06
 Reference value :  3.79846e-06
 Reference value :  4.00000e-06
 Reference value :  4.00007e-06
 Reference value :  4.00016e-06
 Reference value :  4.00086e-06
 Reference value :  4.00176e-06
 Reference value :  4.00277e-06
 Reference value :  4.00457e-06
 Reference value :  4.00583e-06
 Reference value :  4.00712e-06
 Reference value :  4.01047e-06
 Reference value :  4.01146e-06
 Reference value :  4.01378e-06
 Reference value :  4.01615e-06
 Reference value :  4.01843e-06
 Reference value :  4.02102e-06
 Reference value :  4.02717e-06
 Reference value :  4.03036e-06
 Reference value :  4.03731e-06
 Reference value :  4.04054e-06
 Reference value :  4.04515e-06
 Reference value :  4.05472e-06
 Reference value :  4.07111e-06
 Reference value :  4.15711e-06
 Reference value :  4.25013e-06
 Reference value :  4.25022e-06
 Reference value :  4.25070e-06
 Reference value :  4.25202e-06
 Reference value :  4.25326e-06
 Reference value :  4.25465e-06
 Reference value :  4.25686e-06
 Reference value :  4.26168e-06
 Reference value :  4.28130e-06
 Reference value :  4.50000e-06
 Reference value :  4.50007e-06
 Reference value :  4.50012e-06
 Reference value :  4.50035e-06
 Reference value :  4.50130e-06
 Reference value :  4.50224e-06
 Reference value :  4.50399e-06
 Reference value :  4.50532e-06
 Reference value :  4.50730e-06
 Reference value :  4.50925e-06
 Reference value :  4.51019e-06
 Reference value :  4.51237e-06
 Reference value :  4.52121e-06
 Reference value :  4.58914e-06
 Reference value :  4.75011e-06
 Reference value :  4.75017e-06
 Reference value :  4.75021e-06
 Reference value :  4.75032e-06
 Reference value :  4.75070e-06
 Reference value :  4.75153e-06
 Reference value :  4.75256e-06
 Reference value :  4.75405e-06
 Reference value :  4.75538e-06
 Reference value :  4.75793e-06
 Reference value :  4.76554e-06
 Reference value :  4.80007e-06
 Reference value :  4.98093e-06
 Reference value :  5.00003e-06
 Reference value :  5.00011e-06
 Reference value :  5.00022e-06
 Reference value :  5.00086e-06
 Reference value :  5.00130e-06
 Reference value :  5.00224e-06
 Reference value :  5.00403e-06
 Reference value :  5.00458e-06
 Reference value :  5.00582e-06
 Reference value :  5.00643e-06
 Reference value :  5.00900e-06
 Reference value :  5.01256e-06
 Reference value :  5.01402e-06
 Reference value :  5.01537e-06
 Reference value :  5.01797e-06
 Reference value :  5.01908e-06
 Reference value :  5.02161e-06
 Reference value :  5.02534e-06
 Reference value :  5.03323e-06
 Reference value :  5.05111e-06
 Reference value :  5.06094e-06
 Reference value :  5.07197e-06
 Reference value :  5.12121e-06
 Reference value :  5.25011e-06
 Reference value :  5.25022e-06
 Reference value :  5.25105e-06
 Reference value :  5.25254e-06
 Reference value :  5.25464e-06
 Reference value :  5.25786e-06
 Reference value :  5.28167e-06
 Reference value :  5.48913e-06
 Reference value :  5.50010e-06
 Reference value :  5.50035e-06
 Reference value :  5.50130e-06
 Reference value :  5.50270e-06
 Reference value :  5.50486e-06
 Reference value :  5.50754e-06
 Reference value :  5.50947e-06
 Reference value :  5.51277e-06
 Reference value :  5.52078e-06
 Reference value :  5.61590e-06
 Reference value :  5.65101e-06
 Reference value :  5.75010e-06
 Reference value :  5.75022e-06
 Reference value :  5.75105e-06
 Reference value :  5.75256e-06
 Reference value :  5.75404e-06
 Reference value :  5.75536e-06
 Reference value :  5.75694e-06
 Reference value :  5.76185e-06
 Reference value :  5.79902e-06
 Reference value :  5.97930e-06
 Reference value :  6.00003e-06
 Reference value :  6.00010e-06
 Reference value :  6.00016e-06
 Reference value :  6.00052e-06
 Reference value :  6.00130e-06
 Reference value :  6.00224e-06
 Reference value :  6.00341e-06
 Reference value :  6.00458e-06
 Reference value :  6.00582e-06
 Reference value :  6.00800e-06
 Reference value :  6.01256e-06
 Reference value :  6.01401e-06
 Reference value :  6.01536e-06
 Reference value :  6.01796e-06
 Reference value :  6.01908e-06
 Reference value :  6.02161e-06
 Reference value :  6.02534e-06
 Reference value :  6.03412e-06
 Reference value :  6.03960e-06
 Reference value :  6.04348e-06
 Reference value :  6.05142e-06
 Reference value :  6.06677e-06
 Reference value :  6.09359e-06
 Reference value :  6.15383e-06
 Reference value :  6.25010e-06
 Reference value :  6.25013e-06
 Reference value :  6.25020e-06
 Reference value :  6.25026e-06
 Reference value :  6.25070e-06
 Reference value :  6.25153e-06
 Reference value :  6.25256e-06
 Reference value :  6.25402e-06
 Reference value :  6.25468e-06
 Reference value :  6.25605e-06
 Reference value :  6.25702e-06
 Reference value :  6.25976e-06
 Reference value :  6.26562e-06
 Reference value :  6.28255e-06
 Reference value :  6.38618e-06
 Reference value :  6.50001e-06
 Reference value :  6.50007e-06
 Reference value :  6.50012e-06
 Reference value :  6.50035e-06
 Reference value :  6.50130e-06
 Reference value :  6.50221e-06
 Reference value :  6.50405e-06
 Reference value :  6.50560e-06
 Reference value :  6.50753e-06
 Reference value :  6.50946e-06
 Reference value :  6.51157e-06
 Reference value :  6.51411e-06
 Reference value :  6.54212e-06
 Reference value :  6.71359e-06
 Reference value :  6.75011e-06
 Reference value :  6.75020e-06
 Reference value :  6.75026e-06
 Reference value :  6.75070e-06
 Reference value :  6.75152e-06
 Reference value :  6.75254e-06
 Reference value :  6.75403e-06
 Reference value :  6.75532e-06
 Reference value :  6.75695e-06
 Reference value :  6.75883e-06
 Reference value :  6.76316e-06
 Reference value :  6.78386e-06
 Reference value :  7.00000e-06
 Reference value :  7.00010e-06
 Reference value :  7.00022e-06
 Reference value :  7.00086e-06
 Reference value :  7.00176e-06
 Reference value :  7.00276e-06
 Reference value :  7.00457e-06
 Reference value :  7.00583e-06
 Reference value :  7.00644e-06
 Reference value :  7.00802e-06
 Reference value :  7.01047e-06
 Reference value :  7.01146e-06
 Reference value :  7.01379e-06
 Reference value :  7.01625e-06
 Reference value :  7.01863e-06
 Reference value :  7.02134e-06
 Reference value :  7.02809e-06
 Reference value :  7.05101e-06
 Reference value :  7.15596e-06
 Reference value :  7.25011e-06
 Reference value :  7.25020e-06
 Reference value :  7.25032e-06
 Reference value :  7.25105e-06
 Reference value :  7.25202e-06
 Reference value :  7.25326e-06
 Reference value :  7.25462e-06
 Reference value :  7.25682e-06
 Reference value :  7.26160e-06
 Reference value :  7.29804e-06
 Reference value :  7.50001e-06
 Reference value :  7.50010e-06
 Reference value :  7.50016e-06
 Reference value :  7.50052e-06
 Reference value :  7.50130e-06
 Reference value :  7.50221e-06
 Reference value :  7.50332e-06
 Reference value :  7.50486e-06
 Reference value :  7.50674e-06
 Reference value :  7.50754e-06
 Reference value :  7.50947e-06
 Reference value :  7.51277e-06
 Reference value :  7.52829e-06
 Reference value :  7.71184e-06
 Reference value :  7.75013e-06
 Reference value :  7.75021e-06
 Reference value :  7.75032e-06
 Reference value :  7.75070e-06
 Reference value :  7.75152e-06
 Reference value :  7.75254e-06
 Reference value :  7.75403e-06
 Reference value :  7.75464e-06
 Reference value :  7.75604e-06
 Reference value :  7.75784e-06
 Reference value :  7.75994e-06
 Reference value :  7.76542e-06
 Reference value :  7.79851e-06
 Reference value :  7.91634e-06
 Reference value :  8.00003e-06
 Reference value :  8.00011e-06
 Reference value :  8.00022e-06
 Reference value :  8.00086e-06
 Reference value :  8.00130e-06
 Reference value :  8.00224e-06
 Reference value :  8.00403e-06
 Reference value :  8.00521e-06
 Reference value :  8.00644e-06
 Reference value :  8.00802e-06
 Reference value :  8.01001e-06
 Reference value :  8.01171e-06
 Reference value :  8.01630e-06
 Reference value :  8.02535e-06
 Reference value :  8.06898e-06
 Reference value :  8.08936e-06
 Reference value :  8.13637e-06
 Reference value :  8.25013e-06
 Reference value :  8.25022e-06
 Reference value :  8.25105e-06
 Reference value :  8.25254e-06
 Reference value :  8.25609e-06
 Reference value :  8.26282e-06
 Reference value :  8.35527e-06
 Reference value :  8.50000e-06
 Reference value :  8.50001e-06
 Reference value :  8.50010e-06
 Reference value :  8.50018e-06
 Reference value :  8.50128e-06
 Reference value :  8.50303e-06
 Reference value :  8.50443e-06
 Reference value :  8.50570e-06
 Reference value :  8.50706e-06
 Reference value :  8.52212e-06
 Reference value :  8.52878e-06
 Reference value :  8.53372e-06
 Reference value :  8.54062e-06
 Reference value :  8.54827e-06
 Reference value :  8.56251e-06
 Reference value :  8.60453e-06
 Reference value :  8.75011e-06
 Reference value :  8.75020e-06
 Reference value :  8.75032e-06
 Reference value :  8.75152e-06
 Reference value :  8.75326e-06
 Reference value :  8.75464e-06
 Reference value :  8.75681e-06
 Reference value :  8.76484e-06
 Reference value :  8.79755e-06
 Reference value :  8.99734e-06
 Reference value :  9.00003e-06
 Reference value :  9.00011e-06
 Reference value :  9.00035e-06
 Reference value :  9.00130e-06
 Reference value :  9.00277e-06
 Reference value :  9.00461e-06
 Reference value :  9.00739e-06
 Reference value :  9.00877e-06
 Reference value :  9.01311e-06
 Reference value :  9.01641e-06
 Reference value :  9.02270e-06
 Reference value :  9.09849e-06
 Reference value :  9.25013e-06
 Reference value :  9.25022e-06
 Reference value :  9.25045e-06
 Reference value :  9.25152e-06
 Reference value :  9.25254e-06
 Reference value :  9.25403e-06
 Reference value :  9.25532e-06
 Reference value :  9.25789e-06
 Reference value :  9.27126e-06
 Reference value :  9.49601e-06
 Reference value :  9.50007e-06
 Reference value :  9.50016e-06
 Reference value :  9.50086e-06
 Reference value :  9.50176e-06
 Reference value :  9.50277e-06
 Reference value :  9.50458e-06
 Reference value :  9.50582e-06
 Reference value :  9.50710e-06
 Reference value :  9.51058e-06
 Reference value :  9.51255e-06
 Reference value :  9.51401e-06
 Reference value :  9.51538e-06
 Reference value :  9.51799e-06
 Reference value :  9.51911e-06
 Reference value :  9.52350e-06
 Reference value :  9.53343e-06
 Reference value :  9.54173e-06
 Reference value :  9.54842e-06
 Reference value :  9.55437e-06
 Reference value :  9.56063e-06
 Reference value :  9.57552e-06
 Reference value :  9.61919e-06
 Reference value :  9.75011e-06
 Reference value :  9.75020e-06
 Reference value :  9.75032e-06
 Reference value :  9.75105e-06
 Reference value :  9.75201e-06
 Reference value :  9.75400e-06
 Reference value :  9.75531e-06
 Reference value :  9.75690e-06
 Reference value :  9.76180e-06
 Reference value :  9.79907e-06
 Reference value :  1.00000e-05
 Reference value :  1.00001e-05
 Reference value :  1.00002e-05
 Reference value :  1.00005e-05
 Reference value :  1.00013e-05
 Reference value :  1.00022e-05
 Reference value :  1.00041e-05
 Reference value :  1.00067e-05
 Reference value :  1.00084e-05
 Reference value :  1.00106e-05
 Reference value :  1.00128e-05
 Reference value :  1.00283e-05
 Reference value :  1.02120e-05
 Reference value :  1.02502e-05
 Reference value :  1.02503e-05
 Reference value :  1.02507e-05
 Reference value :  1.02520e-05
 Reference value :  1.02540e-05
 Reference value :  1.02553e-05
 Reference value :  1.02569e-05
 Reference value :  1.02588e-05
 Reference value :  1.02632e-05
 Reference value :  1.02752e-05
 Reference value :  1.03582e-05
 Reference value :  1.05000e-05
 Reference value :  1.05001e-05
 Reference value :  1.05003e-05
 Reference value :  1.05013e-05
 Reference value :  1.05022e-05
 Reference value :  1.05040e-05
 Reference value :  1.05052e-05
 Reference value :  1.05058e-05
 Reference value :  1.05071e-05
 Reference value :  1.05105e-05
 Reference value :  1.05126e-05
 Reference value :  1.05138e-05
 Reference value :  1.05161e-05
 Reference value :  1.05183e-05
 Reference value :  1.05208e-05
 Reference value :  1.05307e-05
 Reference value :  1.06038e-05
 Reference value :  1.07501e-05
 Reference value :  1.07502e-05
 Reference value :  1.07503e-05
 Reference value :  1.07507e-05
 Reference value :  1.07515e-05
 Reference value :  1.07525e-05
 Reference value :  1.07540e-05
 Reference value :  1.07553e-05
 Reference value :  1.07568e-05
 Reference value :  1.07616e-05
 Reference value :  1.07809e-05
 Reference value :  1.08870e-05
 Reference value :  1.10000e-05
 Reference value :  1.10001e-05
 Reference value :  1.10002e-05
 Reference value :  1.10009e-05
 Reference value :  1.10018e-05
 Reference value :  1.10022e-05
 Reference value :  1.10041e-05
 Reference value :  1.10056e-05
 Reference value :  1.10075e-05
 Reference value :  1.10095e-05
 Reference value :  1.10116e-05
 Reference value :  1.10128e-05
 Reference value :  1.10208e-05
 Reference value :  1.10661e-05
 Reference value :  1.12501e-05
 Reference value :  1.12502e-05
 Reference value :  1.12502e-05
 Reference value :  1.12504e-05
 Reference value :  1.12511e-05
 Reference value :  1.12520e-05
 Reference value :  1.12540e-05
 Reference value :  1.12553e-05
 Reference value :  1.12569e-05
 Reference value :  1.12588e-05
 Reference value :  1.12612e-05
 Reference value :  1.12654e-05
 Reference value :  1.12837e-05
 Reference value :  1.14156e-05
 Reference value :  1.15001e-05
 Reference value :  1.15001e-05
 Reference value :  1.15003e-05
 Reference value :  1.15013e-05
 Reference value :  1.15022e-05
 Reference value :  1.15040e-05
 Reference value :  1.15052e-05
 Reference value :  1.15064e-05
 Reference value :  1.15090e-05
 Reference value :  1.15115e-05
 Reference value :  1.15138e-05
 Reference value :  1.15161e-05
 Reference value :  1.15184e-05
 Reference value :  1.15208e-05
 Reference value :  1.15266e-05
 Reference value :  1.15702e-05
 Reference value :  1.16043e-05
 Reference value :  1.16217e-05
 Reference value :  1.16322e-05
 Reference value :  1.16541e-05
 Reference value :  1.17202e-05
 Reference value :  1.17501e-05
 Reference value :  1.17502e-05
 Reference value :  1.17503e-05
 Reference value :  1.17507e-05
 Reference value :  1.17520e-05
 Reference value :  1.17541e-05
 Reference value :  1.17560e-05
 Reference value :  1.17618e-05
 Reference value :  1.17814e-05
 Reference value :  1.18062e-05
 Reference value :  1.18239e-05
 Reference value :  1.18313e-05
 Reference value :  1.18464e-05
 Reference value :  1.18703e-05
 Reference value :  1.19219e-05
 Reference value :  1.19624e-05
 Reference value :  1.20000e-05
 Reference value :  1.20000e-05
 Reference value :  1.20001e-05
 Reference value :  1.20002e-05
 Reference value :  1.20003e-05
 Reference value :  1.20009e-05
 Reference value :  1.20013e-05
 Reference value :  1.20022e-05
 Reference value :  1.20033e-05
 Reference value :  1.20049e-05
 Reference value :  1.20068e-05
 Reference value :  1.20076e-05
 Reference value :  1.20095e-05
 Reference value :  1.20116e-05
 Reference value :  1.20141e-05
 Reference value :  1.20283e-05
 Reference value :  1.21145e-05
 Reference value :  1.22501e-05
 Reference value :  1.22502e-05
 Reference value :  1.22503e-05
 Reference value :  1.22507e-05
 Reference value :  1.22515e-05
 Reference value :  1.22525e-05
 Reference value :  1.22540e-05
 Reference value :  1.22553e-05
 Reference value :  1.22569e-05
 Reference value :  1.22588e-05
 Reference value :  1.22612e-05
 Reference value :  1.22654e-05
 Reference value :  1.22837e-05
 Reference value :  1.23576e-05
 Reference value :  1.25000e-05
 Reference value :  1.25001e-05
 Reference value :  1.25002e-05
 Reference value :  1.25005e-05
 Reference value :  1.25013e-05
 Reference value :  1.25022e-05
 Reference value :  1.25040e-05
 Reference value :  1.25046e-05
 Reference value :  1.25058e-05
 Reference value :  1.25064e-05
 Reference value :  1.25080e-05
 Reference value :  1.25105e-05
 Reference value :  1.25114e-05
 Reference value :  1.25138e-05
 Reference value :  1.25162e-05
 Reference value :  1.25185e-05
 Reference value :  1.25211e-05
 Reference value :  1.25273e-05
 Reference value :  1.25307e-05
 Reference value :  1.25374e-05
 Reference value :  1.25400e-05
 Reference value :  1.25445e-05
 Reference value :  1.25537e-05
 Reference value :  1.25636e-05
 Reference value :  1.26124e-05
 Reference value :  1.27501e-05
 Reference value :  1.27502e-05
 Reference value :  1.27503e-05
 Reference value :  1.27507e-05
 Reference value :  1.27520e-05
 Reference value :  1.27533e-05
 Reference value :  1.27546e-05
 Reference value :  1.27569e-05
 Reference value :  1.27650e-05
 Reference value :  1.28304e-05
 Reference value :  1.30000e-05
 Reference value :  1.30001e-05
 Reference value :  1.30002e-05
 Reference value :  1.30005e-05
 Reference value :  1.30013e-05
 Reference value :  1.30022e-05
 Reference value :  1.30040e-05
 Reference value :  1.30046e-05
 Reference value :  1.30063e-05
 Reference value :  1.30073e-05
 Reference value :  1.30093e-05
 Reference value :  1.30112e-05
 Reference value :  1.30136e-05
 Reference value :  1.30309e-05
 Reference value :  1.31666e-05
 Reference value :  1.32501e-05
 Reference value :  1.32502e-05
 Reference value :  1.32503e-05
 Reference value :  1.32511e-05
 Reference value :  1.32520e-05
 Reference value :  1.32541e-05
 Reference value :  1.32547e-05
 Reference value :  1.32561e-05
 Reference value :  1.32579e-05
 Reference value :  1.32655e-05
 Reference value :  1.33311e-05
 Reference value :  1.35000e-05
 Reference value :  1.35001e-05
 Reference value :  1.35001e-05
 Reference value :  1.35003e-05
 Reference value :  1.35013e-05
 Reference value :  1.35022e-05
 Reference value :  1.35040e-05
 Reference value :  1.35052e-05
 Reference value :  1.35058e-05
 Reference value :  1.35071e-05
 Reference value :  1.35106e-05
 Reference value :  1.35140e-05
 Reference value :  1.35180e-05
 Reference value :  1.35216e-05
 Reference value :  1.35333e-05
 Reference value :  1.35521e-05
 Reference value :  1.35620e-05
 Reference value :  1.35737e-05
 Reference value :  1.35939e-05
 Reference value :  1.36904e-05
 Reference value :  1.37501e-05
 Reference value :  1.37502e-05
 Reference value :  1.37503e-05
 Reference value :  1.37511e-05
 Reference value :  1.37520e-05
 Reference value :  1.37540e-05
 Reference value :  1.37553e-05
 Reference value :  1.37569e-05
 Reference value :  1.37618e-05
 Reference value :  1.37816e-05
 Reference value :  1.38670e-05
 Reference value :  1.39118e-05
 Reference value :  1.39581e-05
 Reference value :  1.40000e-05
 Reference value :  1.40001e-05
 Reference value :  1.40001e-05
 Reference value :  1.40005e-05
 Reference value :  1.40013e-05
 Reference value :  1.40022e-05
 Reference value :  1.40034e-05
 Reference value :  1.40046e-05
 Reference value :  1.40063e-05
 Reference value :  1.40083e-05
 Reference value :  1.40102e-05
 Reference value :  1.40124e-05
 Reference value :  1.40213e-05
 Reference value :  1.40894e-05
 Reference value :  1.42501e-05
 Reference value :  1.42502e-05
 Reference value :  1.42503e-05
 Reference value :  1.42507e-05
 Reference value :  1.42515e-05
 Reference value :  1.42526e-05
 Reference value :  1.42541e-05
 Reference value :  1.42554e-05
 Reference value :  1.42570e-05
 Reference value :  1.42620e-05
 Reference value :  1.42998e-05
 Reference value :  1.44779e-05
 Reference value :  1.45000e-05
 Reference value :  1.45001e-05
 Reference value :  1.45002e-05
 Reference value :  1.45009e-05
 Reference value :  1.45018e-05
 Reference value :  1.45022e-05
 Reference value :  1.45034e-05
 Reference value :  1.45046e-05
 Reference value :  1.45058e-05
 Reference value :  1.45064e-05
 Reference value :  1.45090e-05
 Reference value :  1.45126e-05
 Reference value :  1.45140e-05
 Reference value :  1.45154e-05
 Reference value :  1.45180e-05
 Reference value :  1.45191e-05
 Reference value :  1.45234e-05
 Reference value :  1.45340e-05
 Reference value :  1.45394e-05
 Reference value :  1.45495e-05
 Reference value :  1.45602e-05
 Reference value :  1.45929e-05
 Reference value :  1.46962e-05
 Reference value :  1.47502e-05
 Reference value :  1.47503e-05
 Reference value :  1.47507e-05
 Reference value :  1.47520e-05
 Reference value :  1.47533e-05
 Reference value :  1.47546e-05
 Reference value :  1.47560e-05
 Reference value :  1.47578e-05
 Reference value :  1.47815e-05
 Reference value :  1.49967e-05
 Reference value :  1.50001e-05
 Reference value :  1.50001e-05
 Reference value :  1.50003e-05
 Reference value :  1.50013e-05
 Reference value :  1.50022e-05
 Reference value :  1.50033e-05
 Reference value :  1.50049e-05
 Reference value :  1.50067e-05
 Reference value :  1.50075e-05
 Reference value :  1.50095e-05
 Reference value :  1.50116e-05
 Reference value :  1.50141e-05
 Reference value :  1.50283e-05
 Reference value :  1.51148e-05
 Reference value :  1.52501e-05
 Reference value :  1.52502e-05
 Reference value :  1.52502e-05
 Reference value :  1.52504e-05
 Reference value :  1.52511e-05
 Reference value :  1.52520e-05
 Reference value :  1.52533e-05
 Reference value :  1.52546e-05
 Reference value :  1.52560e-05
 Reference value :  1.52569e-05
 Reference value :  1.52588e-05
 Reference value :  1.52612e-05
 Reference value :  1.52655e-05
 Reference value :  1.52752e-05
 Reference value :  1.53216e-05
 Reference value :  1.55000e-05
 Reference value :  1.55013e-05
 Reference value :  1.55039e-05
 Reference value :  1.55053e-05
 Reference value :  1.55076e-05
 Reference value :  1.55100e-05
 Reference value :  1.55127e-05
 Reference value :  1.55139e-05
 Reference value :  1.55152e-05
 Reference value :  1.55161e-05
 Reference value :  1.55181e-05
 Reference value :  1.55191e-05
 Reference value :  1.55214e-05
 Reference value :  1.55279e-05
 Reference value :  1.55487e-05
 Reference value :  1.56585e-05
 Reference value :  1.57501e-05
 Reference value :  1.57502e-05
 Reference value :  1.57503e-05
 Reference value :  1.57507e-05
 Reference value :  1.57520e-05
 Reference value :  1.57533e-05
 Reference value :  1.57546e-05
 Reference value :  1.57568e-05
 Reference value :  1.57650e-05
 Reference value :  1.58303e-05
 Reference value :  1.60000e-05
 Reference value :  1.60001e-05
 Reference value :  1.60001e-05
 Reference value :  1.60003e-05
 Reference value :  1.60013e-05
 Reference value :  1.60022e-05
 Reference value :  1.60041e-05
 Reference value :  1.60067e-05
 Reference value :  1.60084e-05
 Reference value :  1.60106e-05
 Reference value :  1.60141e-05
 Reference value :  1.60420e-05
 Reference value :  1.62501e-05
 Reference value :  1.62502e-05
 Reference value :  1.62504e-05
 Reference value :  1.62515e-05
 Reference value :  1.62520e-05
 Reference value :  1.62540e-05
 Reference value :  1.62553e-05
 Reference value :  1.62569e-05
 Reference value :  1.62599e-05
 Reference value :  1.62690e-05
 Reference value :  1.63217e-05
 Reference value :  1.65000e-05
 Reference value :  1.65001e-05
 Reference value :  1.65009e-05
 Reference value :  1.65022e-05
 Reference value :  1.65040e-05
 Reference value :  1.65052e-05
 Reference value :  1.65064e-05
 Reference value :  1.65090e-05
 Reference value :  1.65117e-05
 Reference value :  1.65187e-05
 Reference value :  1.65297e-05
 Reference value :  1.65419e-05
 Reference value :  1.65543e-05
 Reference value :  1.65752e-05
 Reference value :  1.66789e-05
 Reference value :  1.67501e-05
 Reference value :  1.67502e-05
 Reference value :  1.67504e-05
 Reference value :  1.67515e-05
 Reference value :  1.67526e-05
 Reference value :  1.67542e-05
 Reference value :  1.67573e-05
 Reference value :  1.67629e-05
 Reference value :  1.67943e-05
 Reference value :  1.70000e-05
 Reference value :  1.70000e-05
 Reference value :  1.70000e-05
 Reference value :  1.70000e-05
 Reference value :  1.70000e-05
 Reference value :  1.70001e-05
 Reference value :  1.70001e-05
 Reference value :  1.70001e-05
 Reference value :  1.70003e-05
 Reference value :  1.70008e-05
 Reference value :  1.70019e-05
 Reference value :  1.70024e-05
 Reference value :  1.70037e-05
 Reference value :  1.70051e-05
 Reference value :  1.70057e-05
 Reference value :  1.70071e-05
 Reference value :  1.70094e-05
 Reference value :  1.70221e-05
 Reference value :  1.70288e-05
 Reference value :  1.70337e-05
 Reference value :  1.70374e-05
 Reference value :  1.70406e-05
 Reference value :  1.70432e-05
 Reference value :  1.70483e-05
 Reference value :  1.70542e-05
 Reference value :  1.70689e-05
 Reference value :  1.71046e-05
 Reference value :  1.72008e-05
 Reference value :  1.72501e-05
 Reference value :  1.72502e-05
 Reference value :  1.72503e-05
 Reference value :  1.72507e-05
 Reference value :  1.72515e-05
 Reference value :  1.72520e-05
 Reference value :  1.72533e-05
 Reference value :  1.72546e-05
 Reference value :  1.72560e-05
 Reference value :  1.72577e-05
 Reference value :  1.72649e-05
 Reference value :  1.72979e-05
 Reference value :  1.75000e-05
 Reference value :  1.75001e-05
 Reference value :  1.75001e-05
 Reference value :  1.75003e-05
 Reference value :  1.75013e-05
 Reference value :  1.75022e-05
 Reference value :  1.75040e-05
 Reference value :  1.75053e-05
 Reference value :  1.75074e-05
 Reference value :  1.75088e-05
 Reference value :  1.75131e-05
 Reference value :  1.75164e-05
 Reference value :  1.75267e-05
 Reference value :  1.76713e-05
 Reference value :  1.77502e-05
 Reference value :  1.77504e-05
 Reference value :  1.77520e-05
 Reference value :  1.77540e-05
 Reference value :  1.77560e-05
 Reference value :  1.77596e-05
 Reference value :  1.77819e-05
 Reference value :  1.79961e-05
 Reference value :  1.80001e-05
 Reference value :  1.80001e-05
 Reference value :  1.80003e-05
 Reference value :  1.80012e-05
 Reference value :  1.80021e-05
 Reference value :  1.80037e-05
 Reference value :  1.80063e-05
 Reference value :  1.80124e-05
 Reference value :  1.80153e-05
 Reference value :  1.80191e-05
 Reference value :  1.80291e-05
 Reference value :  1.80421e-05
 Reference value :  1.80489e-05
 Reference value :  1.80580e-05
 Reference value :  1.80721e-05
 Reference value :  1.81049e-05
 Reference value :  1.82501e-05
 Reference value :  1.82502e-05
 Reference value :  1.82504e-05
 Reference value :  1.82520e-05
 Reference value :  1.82540e-05
 Reference value :  1.82559e-05
 Reference value :  1.82617e-05
 Reference value :  1.83310e-05
 Reference value :  1.85001e-05
 Reference value :  1.85005e-05
 Reference value :  1.85013e-05
 Reference value :  1.85033e-05
 Reference value :  1.85067e-05
 Reference value :  1.85084e-05
 Reference value :  1.85116e-05
 Reference value :  1.85168e-05
 Reference value :  1.86149e-05
 Reference value :  1.87501e-05
 Reference value :  1.87502e-05
 Reference value :  1.87507e-05
 Reference value :  1.87520e-05
 Reference value :  1.87540e-05
 Reference value :  1.87560e-05
 Reference value :  1.87588e-05
 Reference value :  1.87632e-05
 Reference value :  1.87839e-05
 Reference value :  1.89176e-05
 Reference value :  1.90001e-05
 Reference value :  1.90001e-05
 Reference value :  1.90003e-05
 Reference value :  1.90013e-05
 Reference value :  1.90022e-05
 Reference value :  1.90040e-05
 Reference value :  1.90052e-05
 Reference value :  1.90064e-05
 Reference value :  1.90090e-05
 Reference value :  1.90115e-05
 Reference value :  1.90138e-05
 Reference value :  1.90161e-05
 Reference value :  1.90195e-05
 Reference value :  1.90221e-05
 Reference value :  1.90378e-05
 Reference value :  1.91038e-05
 Reference value :  1.92183e-05
 Reference value :  1.92501e-05
 Reference value :  1.92502e-05
 Reference value :  1.92502e-05
 Reference value :  1.92503e-05
 Reference value :  1.92504e-05
 Reference value :  1.92511e-05
 Reference value :  1.92515e-05
 Reference value :  1.92520e-05
 Reference value :  1.92533e-05
 Reference value :  1.92546e-05
 Reference value :  1.92559e-05
 Reference value :  1.92577e-05
 Reference value :  1.92649e-05
 Reference value :  1.92980e-05
 Reference value :  1.95000e-05
 Reference value :  1.95020e-05
 Reference value :  1.95061e-05
 Reference value :  1.95082e-05
 Reference value :  1.95119e-05
 Reference value :  1.95157e-05
 Reference value :  1.95262e-05
 Reference value :  1.96004e-05
 Reference value :  1.97501e-05
 Reference value :  1.97502e-05
 Reference value :  1.97502e-05
 Reference value :  1.97507e-05
 Reference value :  1.97520e-05
 Reference value :  1.97539e-05
 Reference value :  1.97550e-05
 Reference value :  1.97564e-05
 Reference value :  1.97585e-05
 Reference value :  1.97607e-05
 Reference value :  1.97642e-05
 Reference value :  1.98051e-05
 Reference value :  2.00000e-05
 Reference value :  2.00001e-05
 Reference value :  2.00002e-05
 Reference value :  2.00009e-05
 Reference value :  2.00018e-05
 Reference value :  2.00028e-05
 Reference value :  2.00046e-05
 Reference value :  2.00058e-05
 Reference value :  2.00071e-05
 Reference value :  2.00115e-05
 Reference value :  2.00138e-05
 Reference value :  2.00161e-05
 Reference value :  2.00184e-05
 Reference value :  2.00223e-05
 Reference value :  2.00530e-05
 Reference value :  2.01059e-05
 Reference value :  2.01195e-05
 Reference value :  2.01262e-05
 Reference value :  2.01489e-05
 Reference value :  2.02031e-05
 Reference value :  2.02501e-05
 Reference value :  2.02502e-05
 Reference value :  2.02503e-05
 Reference value :  2.02507e-05
 Reference value :  2.02520e-05
 Reference value :  2.02540e-05
 Reference value :  2.02553e-05
 Reference value :  2.02568e-05
 Reference value :  2.02617e-05
 Reference value :  2.02943e-05
 Reference value :  2.03203e-05
 Reference value :  2.03388e-05
 Reference value :  2.03644e-05
 Reference value :  2.04538e-05
 Reference value :  2.05004e-05
 Reference value :  2.05018e-05
 Reference value :  2.05028e-05
 Reference value :  2.05041e-05
 Reference value :  2.05058e-05
 Reference value :  2.05075e-05
 Reference value :  2.05094e-05
 Reference value :  2.05115e-05
 Reference value :  2.05127e-05
 Reference value :  2.05206e-05
 Reference value :  2.05671e-05
 Reference value :  2.07501e-05
 Reference value :  2.07502e-05
 Reference value :  2.07503e-05
 Reference value :  2.07507e-05
 Reference value :  2.07520e-05
 Reference value :  2.07540e-05
 Reference value :  2.07553e-05
 Reference value :  2.07569e-05
 Reference value :  2.07599e-05
 Reference value :  2.07690e-05
 Reference value :  2.08215e-05
 Reference value :  2.10000e-05
 Reference value :  2.10001e-05
 Reference value :  2.10002e-05
 Reference value :  2.10013e-05
 Reference value :  2.10028e-05
 Reference value :  2.10046e-05
 Reference value :  2.10064e-05
 Reference value :  2.10105e-05
 Reference value :  2.10126e-05
 Reference value :  2.10151e-05
 Reference value :  2.10185e-05
 Reference value :  2.10225e-05
 Reference value :  2.10349e-05
 Reference value :  2.10411e-05
 Reference value :  2.10480e-05
 Reference value :  2.10762e-05
 Reference value :  2.12501e-05
 Reference value :  2.12502e-05
 Reference value :  2.12507e-05
 Reference value :  2.12520e-05
 Reference value :  2.12540e-05
 Reference value :  2.12560e-05
 Reference value :  2.12595e-05
 Reference value :  2.12811e-05
 Reference value :  2.13863e-05
 Reference value :  2.15000e-05
 Reference value :  2.15001e-05
 Reference value :  2.15002e-05
 Reference value :  2.15009e-05
 Reference value :  2.15018e-05
 Reference value :  2.15028e-05
 Reference value :  2.15040e-05
 Reference value :  2.15053e-05
 Reference value :  2.15073e-05
 Reference value :  2.15093e-05
 Reference value :  2.15112e-05
 Reference value :  2.15136e-05
 Reference value :  2.15503e-05
 Reference value :  2.17501e-05
 Reference value :  2.17502e-05
 Reference value :  2.17502e-05
 Reference value :  2.17504e-05
 Reference value :  2.17515e-05
 Reference value :  2.17526e-05
 Reference value :  2.17541e-05
 Reference value :  2.17547e-05
 Reference value :  2.17561e-05
 Reference value :  2.17579e-05
 Reference value :  2.17655e-05
 Reference value :  2.18847e-05
 Reference value :  2.20004e-05
 Reference value :  2.20015e-05
 Reference value :  2.20024e-05
 Reference value :  2.20035e-05
 Reference value :  2.20047e-05
 Reference value :  2.20059e-05
 Reference value :  2.20080e-05
 Reference value :  2.20108e-05
 Reference value :  2.20141e-05
 Reference value :  2.20178e-05
 Reference value :  2.20214e-05
 Reference value :  2.20336e-05
 Reference value :  2.20535e-05
 Reference value :  2.20639e-05
 Reference value :  2.20840e-05
 Reference value :  2.21572e-05
 Reference value :  2.22389e-05
 Reference value :  2.22501e-05
 Reference value :  2.22502e-05
 Reference value :  2.22507e-05
 Reference value :  2.22520e-05
 Reference value :  2.22540e-05
 Reference value :  2.22561e-05
 Reference value :  2.22599e-05
 Reference value :  2.22834e-05
 Reference value :  2.23248e-05
 Reference value :  2.23519e-05
 Reference value :  2.23857e-05
 Reference value :  2.24867e-05
 Reference value :  2.25001e-05
 Reference value :  2.25002e-05
 Reference value :  2.25005e-05
 Reference value :  2.25022e-05
 Reference value :  2.25046e-05
 Reference value :  2.25073e-05
 Reference value :  2.25093e-05
 Reference value :  2.25112e-05
 Reference value :  2.25213e-05
 Reference value :  2.27501e-05
 Reference value :  2.27502e-05
 Reference value :  2.27511e-05
 Reference value :  2.27526e-05
 Reference value :  2.27547e-05
 Reference value :  2.27570e-05
 Reference value :  2.27817e-05
 Reference value :  2.30004e-05
 Reference value :  2.30016e-05
 Reference value :  2.30031e-05
 Reference value :  2.30050e-05
 Reference value :  2.30066e-05
 Reference value :  2.30110e-05
 Reference value :  2.30143e-05
 Reference value :  2.30167e-05
 Reference value :  2.30180e-05
 Reference value :  2.30191e-05
 Reference value :  2.30216e-05
 Reference value :  2.30290e-05
 Reference value :  2.30446e-05
 Reference value :  2.30531e-05
 Reference value :  2.30636e-05
 Reference value :  2.30837e-05
 Reference value :  2.31370e-05
 Reference value :  2.32501e-05
 Reference value :  2.32502e-05
 Reference value :  2.32503e-05
 Reference value :  2.32511e-05
 Reference value :  2.32520e-05
 Reference value :  2.32540e-05
 Reference value :  2.32560e-05
 Reference value :  2.32580e-05
 Reference value :  2.32655e-05
 Reference value :  2.33317e-05
 Reference value :  2.35000e-05
 Reference value :  2.35001e-05
 Reference value :  2.35002e-05
 Reference value :  2.35009e-05
 Reference value :  2.35018e-05
 Reference value :  2.35033e-05
 Reference value :  2.35056e-05
 Reference value :  2.35075e-05
 Reference value :  2.35095e-05
 Reference value :  2.35128e-05
 Reference value :  2.35207e-05
 Reference value :  2.35665e-05
 Reference value :  2.37501e-05
 Reference value :  2.37501e-05
 Reference value :  2.37502e-05
 Reference value :  2.37504e-05
 Reference value :  2.37511e-05
 Reference value :  2.37520e-05
 Reference value :  2.37540e-05
 Reference value :  2.37553e-05
 Reference value :  2.37579e-05
 Reference value :  2.37613e-05
 Reference value :  2.37753e-05
 Reference value :  2.38591e-05
 Reference value :  2.40000e-05
 Reference value :  2.40001e-05
 Reference value :  2.40005e-05
 Reference value :  2.40018e-05
 Reference value :  2.40028e-05
 Reference value :  2.40046e-05
 Reference value :  2.40058e-05
 Reference value :  2.40071e-05
 Reference value :  2.40105e-05
 Reference value :  2.40115e-05
 Reference value :  2.40138e-05
 Reference value :  2.40163e-05
 Reference value :  2.40186e-05
 Reference value :  2.40228e-05
 Reference value :  2.40389e-05
 Reference value :  2.40709e-05
 Reference value :  2.41778e-05
 Reference value :  2.42501e-05
 Reference value :  2.42502e-05
 Reference value :  2.42503e-05
 Reference value :  2.42504e-05
 Reference value :  2.42511e-05
 Reference value :  2.42520e-05
 Reference value :  2.42540e-05
 Reference value :  2.42553e-05
 Reference value :  2.42569e-05
 Reference value :  2.42617e-05
 Reference value :  2.42984e-05
 Reference value :  2.45000e-05
 Reference value :  2.45001e-05
 Reference value :  2.45001e-05
 Reference value :  2.45003e-05
 Reference value :  2.45013e-05
 Reference value :  2.45022e-05
 Reference value :  2.45041e-05
 Reference value :  2.45056e-05
 Reference value :  2.45075e-05
 Reference value :  2.45095e-05
 Reference value :  2.45128e-05
 Reference value :  2.45283e-05
 Reference value :  2.47112e-05
 Reference value :  2.47502e-05
 Reference value :  2.47503e-05
 Reference value :  2.47510e-05
 Reference value :  2.47520e-05
 Reference value :  2.47540e-05
 Reference value :  2.47553e-05
 Reference value :  2.47569e-05
 Reference value :  2.47599e-05
 Reference value :  2.47690e-05
 Reference value :  2.48212e-05
 Reference value :  2.50000e-05
 Reference value :  2.50001e-05
 Reference value :  2.50002e-05
 Reference value :  2.50009e-05
 Reference value :  2.50018e-05
 Reference value :  2.50028e-05
 Reference value :  2.50046e-05
 Reference value :  2.50058e-05
 Reference value :  2.50064e-05
 Reference value :  2.50090e-05
 Reference value :  2.50108e-05
 Reference value :  2.50140e-05
 Reference value :  2.50177e-05
 Reference value :  2.50268e-05
 Reference value :  2.50334e-05
 Reference value :  2.50512e-05
 Reference value :  2.51187e-05
 Reference value :  2.52501e-05
 Reference value :  2.52503e-05
 Reference value :  2.52515e-05
 Reference value :  2.52533e-05
 Reference value :  2.52573e-05
 Reference value :  2.52723e-05
 Reference value :  2.55000e-05
 Reference value :  2.55000e-05
 Reference value :  2.55001e-05
 Reference value :  2.55001e-05
 Reference value :  2.55008e-05
 Reference value :  2.55024e-05
 Reference value :  2.55037e-05
 Reference value :  2.55051e-05
 Reference value :  2.55071e-05
 Reference value :  2.55288e-05
 Reference value :  2.55337e-05
 Reference value :  2.55406e-05
 Reference value :  2.55483e-05
 Reference value :  2.55689e-05
 Reference value :  2.56260e-05
 Reference value :  2.57501e-05
 Reference value :  2.57502e-05
 Reference value :  2.57503e-05
 Reference value :  2.57507e-05
 Reference value :  2.57520e-05
 Reference value :  2.57533e-05
 Reference value :  2.57546e-05
 Reference value :  2.57568e-05
 Reference value :  2.57615e-05
 Reference value :  2.57974e-05
 Reference value :  2.60000e-05
 Reference value :  2.60001e-05
 Reference value :  2.60002e-05
 Reference value :  2.60013e-05
 Reference value :  2.60028e-05
 Reference value :  2.60046e-05
 Reference value :  2.60074e-05
 Reference value :  2.60088e-05
 Reference value :  2.60131e-05
 Reference value :  2.60164e-05
 Reference value :  2.60227e-05
 Reference value :  2.60984e-05
 Reference value :  2.62502e-05
 Reference value :  2.62503e-05
 Reference value :  2.62515e-05
 Reference value :  2.62533e-05
 Reference value :  2.62546e-05
 Reference value :  2.62579e-05
 Reference value :  2.62819e-05
 Reference value :  2.65000e-05
 Reference value :  2.65001e-05
 Reference value :  2.65001e-05
 Reference value :  2.65004e-05
 Reference value :  2.65016e-05
 Reference value :  2.65031e-05
 Reference value :  2.65044e-05
 Reference value :  2.65064e-05
 Reference value :  2.65090e-05
 Reference value :  2.65125e-05
 Reference value :  2.65140e-05
 Reference value :  2.65166e-05
 Reference value :  2.65189e-05
 Reference value :  2.65215e-05
 Reference value :  2.65282e-05
 Reference value :  2.65378e-05
 Reference value :  2.65418e-05
 Reference value :  2.65485e-05
 Reference value :  2.65546e-05
 Reference value :  2.65608e-05
 Reference value :  2.65700e-05
 Reference value :  2.65885e-05
 Reference value :  2.66435e-05
 Reference value :  2.67501e-05
 Reference value :  2.67502e-05
 Reference value :  2.67502e-05
 Reference value :  2.67504e-05
 Reference value :  2.67510e-05
 Reference value :  2.67520e-05
 Reference value :  2.67533e-05
 Reference value :  2.67546e-05
 Reference value :  2.67559e-05
 Reference value :  2.67578e-05
 Reference value :  2.67650e-05
 Reference value :  2.67986e-05
 Reference value :  2.70000e-05
 Reference value :  2.70001e-05
 Reference value :  2.70002e-05
 Reference value :  2.70005e-05
 Reference value :  2.70013e-05
 Reference value :  2.70022e-05
 Reference value :  2.70033e-05
 Reference value :  2.70049e-05
 Reference value :  2.70067e-05
 Reference value :  2.70075e-05
 Reference value :  2.70095e-05
 Reference value :  2.70116e-05
 Reference value :  2.70141e-05
 Reference value :  2.70420e-05
 Reference value :  2.72122e-05
 Reference value :  2.72501e-05
 Reference value :  2.72502e-05
 Reference value :  2.72503e-05
 Reference value :  2.72507e-05
 Reference value :  2.72515e-05
 Reference value :  2.72520e-05
 Reference value :  2.72533e-05
 Reference value :  2.72546e-05
 Reference value :  2.72560e-05
 Reference value :  2.72578e-05
 Reference value :  2.72599e-05
 Reference value :  2.72632e-05
 Reference value :  2.72752e-05
 Reference value :  2.73584e-05
 Reference value :  2.75000e-05
 Reference value :  2.75001e-05
 Reference value :  2.75002e-05
 Reference value :  2.75005e-05
 Reference value :  2.75013e-05
 Reference value :  2.75022e-05
 Reference value :  2.75034e-05
 Reference value :  2.75046e-05
 Reference value :  2.75058e-05
 Reference value :  2.75071e-05
 Reference value :  2.75090e-05
 Reference value :  2.75115e-05
 Reference value :  2.75138e-05
 Reference value :  2.75161e-05
 Reference value :  2.75183e-05
 Reference value :  2.75208e-05
 Reference value :  2.75264e-05
 Reference value :  2.75485e-05
 Reference value :  2.76590e-05
 Reference value :  2.77501e-05
 Reference value :  2.77502e-05
 Reference value :  2.77502e-05
 Reference value :  2.77507e-05
 Reference value :  2.77520e-05
 Reference value :  2.77540e-05
 Reference value :  2.77559e-05
 Reference value :  2.77594e-05
 Reference value :  2.77980e-05
 Reference value :  2.80020e-05
 Reference value :  2.80082e-05
 Reference value :  2.80137e-05
 Reference value :  2.80262e-05
 Reference value :  2.81686e-05
 Reference value :  2.82502e-05
 Reference value :  2.82503e-05
 Reference value :  2.82511e-05
 Reference value :  2.82520e-05
 Reference value :  2.82533e-05
 Reference value :  2.82544e-05
 Reference value :  2.82557e-05
 Reference value :  2.82574e-05
 Reference value :  2.82595e-05
 Reference value :  2.82624e-05
 Reference value :  2.82728e-05
 Reference value :  2.83482e-05
 Reference value :  2.85000e-05
 Reference value :  2.85001e-05
 Reference value :  2.85005e-05
 Reference value :  2.85013e-05
 Reference value :  2.85022e-05
 Reference value :  2.85040e-05
 Reference value :  2.85052e-05
 Reference value :  2.85064e-05
 Reference value :  2.85080e-05
 Reference value :  2.85105e-05
 Reference value :  2.85115e-05
 Reference value :  2.85138e-05
 Reference value :  2.85161e-05
 Reference value :  2.85184e-05
 Reference value :  2.85209e-05
 Reference value :  2.85245e-05
 Reference value :  2.85400e-05
 Reference value :  2.85719e-05
 Reference value :  2.86044e-05
 Reference value :  2.86171e-05
 Reference value :  2.86232e-05
 Reference value :  2.86438e-05
 Reference value :  2.87162e-05
 Reference value :  2.87502e-05
 Reference value :  2.87502e-05
 Reference value :  2.87507e-05
 Reference value :  2.87520e-05
 Reference value :  2.87540e-05
 Reference value :  2.87553e-05
 Reference value :  2.87568e-05
 Reference value :  2.87617e-05
 Reference value :  2.87983e-05
 Reference value :  2.88178e-05
 Reference value :  2.88496e-05
 Reference value :  2.88621e-05
 Reference value :  2.88735e-05
 Reference value :  2.88944e-05
 Reference value :  2.89303e-05
 Reference value :  2.89917e-05
 Reference value :  2.90001e-05
 Reference value :  2.90006e-05
 Reference value :  2.90014e-05
 Reference value :  2.90022e-05
 Reference value :  2.90034e-05
 Reference value :  2.90056e-05
 Reference value :  2.90076e-05
 Reference value :  2.90110e-05
 Reference value :  2.90181e-05
 Reference value :  2.92439e-05
 Reference value :  2.92502e-05
 Reference value :  2.92504e-05
 Reference value :  2.92520e-05
 Reference value :  2.92545e-05
 Reference value :  2.92567e-05
 Reference value :  2.92611e-05
 Reference value :  2.92844e-05
 Reference value :  2.94368e-05
 Reference value :  2.95000e-05
 Reference value :  2.95001e-05
 Reference value :  2.95003e-05
 Reference value :  2.95013e-05
 Reference value :  2.95022e-05
 Reference value :  2.95040e-05
 Reference value :  2.95046e-05
 Reference value :  2.95058e-05
 Reference value :  2.95071e-05
 Reference value :  2.95105e-05
 Reference value :  2.95115e-05
 Reference value :  2.95138e-05
 Reference value :  2.95162e-05
 Reference value :  2.95185e-05
 Reference value :  2.95211e-05
 Reference value :  2.95274e-05
 Reference value :  2.95384e-05
 Reference value :  2.95430e-05
 Reference value :  2.95526e-05
 Reference value :  2.95678e-05
 Reference value :  2.96529e-05
 Reference value :  2.97501e-05
 Reference value :  2.97502e-05
 Reference value :  2.97507e-05
 Reference value :  2.97520e-05
 Reference value :  2.97541e-05
 Reference value :  2.97554e-05
 Reference value :  2.97569e-05
 Reference value :  2.97652e-05
 Reference value :  2.98303e-05
 Reference value :  3.00000e-05
 Reference value :  3.00001e-05
 Reference value :  3.00001e-05
 Reference value :  3.00003e-05
 Reference value :  3.00013e-05
 Reference value :  3.00022e-05
 Reference value :  3.00040e-05
 Reference value :  3.00053e-05
 Reference value :  3.00073e-05
 Reference value :  3.00093e-05
 Reference value :  3.00102e-05
 Reference value :  3.00124e-05
 Reference value :  3.00212e-05
 Reference value :  3.00891e-05
 Reference value :  3.02501e-05
 Reference value :  3.02502e-05
 Reference value :  3.02503e-05
 Reference value :  3.02507e-05
 Reference value :  3.02520e-05
 Reference value :  3.02533e-05
 Reference value :  3.02547e-05
 Reference value :  3.02570e-05
 Reference value :  3.02620e-05
 Reference value :  3.02821e-05
 Reference value :  3.04779e-05
 Reference value :  3.05004e-05
 Reference value :  3.05016e-05
 Reference value :  3.05024e-05
 Reference value :  3.05035e-05
 Reference value :  3.05047e-05
 Reference value :  3.05059e-05
 Reference value :  3.05071e-05
 Reference value :  3.05091e-05
 Reference value :  3.05126e-05
 Reference value :  3.05141e-05
 Reference value :  3.05154e-05
 Reference value :  3.05178e-05
 Reference value :  3.05201e-05
 Reference value :  3.05231e-05
 Reference value :  3.05337e-05
 Reference value :  3.05477e-05
 Reference value :  3.05615e-05
 Reference value :  3.05731e-05
 Reference value :  3.05854e-05
 Reference value :  3.06373e-05
 Reference value :  3.07090e-05
 Reference value :  3.07501e-05
 Reference value :  3.07502e-05
 Reference value :  3.07503e-05
 Reference value :  3.07507e-05
 Reference value :  3.07515e-05
 Reference value :  3.07526e-05
 Reference value :  3.07540e-05
 Reference value :  3.07547e-05
 Reference value :  3.07561e-05
 Reference value :  3.07600e-05
 Reference value :  3.07719e-05
 Reference value :  3.07771e-05
 Reference value :  3.07885e-05
 Reference value :  3.08034e-05
 Reference value :  3.08267e-05
 Reference value :  3.09107e-05
 Reference value :  3.10000e-05
 Reference value :  3.10001e-05
 Reference value :  3.10002e-05
 Reference value :  3.10005e-05
 Reference value :  3.10013e-05
 Reference value :  3.10022e-05
 Reference value :  3.10040e-05
 Reference value :  3.10053e-05
 Reference value :  3.10073e-05
 Reference value :  3.10093e-05
 Reference value :  3.10112e-05
 Reference value :  3.10137e-05
 Reference value :  3.10504e-05
 Reference value :  3.12501e-05
 Reference value :  3.12502e-05
 Reference value :  3.12503e-05
 Reference value :  3.12507e-05
 Reference value :  3.12515e-05
 Reference value :  3.12520e-05
 Reference value :  3.12541e-05
 Reference value :  3.12554e-05
 Reference value :  3.12569e-05
 Reference value :  3.12596e-05
 Reference value :  3.12712e-05
 Reference value :  3.13301e-05
 Reference value :  3.15000e-05
 Reference value :  3.15001e-05
 Reference value :  3.15001e-05
 Reference value :  3.15003e-05
 Reference value :  3.15013e-05
 Reference value :  3.15022e-05
 Reference value :  3.15040e-05
 Reference value :  3.15052e-05
 Reference value :  3.15058e-05
 Reference value :  3.15071e-05
 Reference value :  3.15106e-05
 Reference value :  3.15140e-05
 Reference value :  3.15154e-05
 Reference value :  3.15180e-05
 Reference value :  3.15191e-05
 Reference value :  3.15216e-05
 Reference value :  3.15253e-05
 Reference value :  3.15335e-05
 Reference value :  3.15448e-05
 Reference value :  3.15538e-05
 Reference value :  3.15584e-05
 Reference value :  3.15693e-05
 Reference value :  3.15910e-05
 Reference value :  3.17066e-05
 Reference value :  3.17501e-05
 Reference value :  3.17502e-05
 Reference value :  3.17504e-05
 Reference value :  3.17515e-05
 Reference value :  3.17526e-05
 Reference value :  3.17540e-05
 Reference value :  3.17554e-05
 Reference value :  3.17581e-05
 Reference value :  3.17727e-05
 Reference value :  3.18879e-05
 Reference value :  3.20000e-05
 Reference value :  3.20001e-05
 Reference value :  3.20002e-05
 Reference value :  3.20009e-05
 Reference value :  3.20018e-05
 Reference value :  3.20027e-05
 Reference value :  3.20049e-05
 Reference value :  3.20067e-05
 Reference value :  3.20075e-05
 Reference value :  3.20095e-05
 Reference value :  3.20116e-05
 Reference value :  3.20141e-05
 Reference value :  3.20283e-05
 Reference value :  3.21147e-05
 Reference value :  3.22501e-05
 Reference value :  3.22502e-05
 Reference value :  3.22503e-05
 Reference value :  3.22507e-05
 Reference value :  3.22515e-05
 Reference value :  3.22520e-05
 Reference value :  3.22533e-05
 Reference value :  3.22546e-05
 Reference value :  3.22569e-05
 Reference value :  3.22588e-05
 Reference value :  3.22632e-05
 Reference value :  3.22839e-05
 Reference value :  3.24175e-05
 Reference value :  3.25001e-05
 Reference value :  3.25002e-05
 Reference value :  3.25005e-05
 Reference value :  3.25013e-05
 Reference value :  3.25022e-05
 Reference value :  3.25040e-05
 Reference value :  3.25046e-05
 Reference value :  3.25058e-05
 Reference value :  3.25064e-05
 Reference value :  3.25090e-05
 Reference value :  3.25115e-05
 Reference value :  3.25138e-05
 Reference value :  3.25163e-05
 Reference value :  3.25198e-05
 Reference value :  3.25251e-05
 Reference value :  3.25508e-05
 Reference value :  3.26262e-05
 Reference value :  3.26962e-05
 Reference value :  3.27501e-05
 Reference value :  3.27502e-05
 Reference value :  3.27503e-05
 Reference value :  3.27507e-05
 Reference value :  3.27515e-05
 Reference value :  3.27520e-05
 Reference value :  3.27540e-05
 Reference value :  3.27553e-05
 Reference value :  3.27568e-05
 Reference value :  3.27616e-05
 Reference value :  3.27982e-05
 Reference value :  3.30000e-05
 Reference value :  3.30001e-05
 Reference value :  3.30002e-05
 Reference value :  3.30005e-05
 Reference value :  3.30013e-05
 Reference value :  3.30022e-05
 Reference value :  3.30040e-05
 Reference value :  3.30053e-05
 Reference value :  3.30073e-05
 Reference value :  3.30093e-05
 Reference value :  3.30112e-05
 Reference value :  3.30162e-05
 Reference value :  3.30503e-05
 Reference value :  3.32501e-05
 Reference value :  3.32502e-05
 Reference value :  3.32502e-05
 Reference value :  3.32504e-05
 Reference value :  3.32511e-05
 Reference value :  3.32520e-05
 Reference value :  3.32533e-05
 Reference value :  3.32547e-05
 Reference value :  3.32561e-05
 Reference value :  3.32578e-05
 Reference value :  3.32653e-05
 Reference value :  3.33113e-05
 Reference value :  3.35000e-05
 Reference value :  3.35015e-05
 Reference value :  3.35059e-05
 Reference value :  3.35085e-05
 Reference value :  3.35110e-05
 Reference value :  3.35138e-05
 Reference value :  3.35456e-05
 Reference value :  3.36895e-05
 Reference value :  3.37501e-05
 Reference value :  3.37502e-05
 Reference value :  3.37502e-05
 Reference value :  3.37504e-05
 Reference value :  3.37515e-05
 Reference value :  3.37525e-05
 Reference value :  3.37550e-05
 Reference value :  3.37571e-05
 Reference value :  3.37624e-05
 Reference value :  3.37792e-05
 Reference value :  3.38456e-05
 Reference value :  3.40000e-05
 Reference value :  3.40000e-05
 Reference value :  3.40000e-05
 Reference value :  3.40000e-05
 Reference value :  3.40001e-05
 Reference value :  3.40001e-05
 Reference value :  3.40003e-05
 Reference value :  3.40013e-05
 Reference value :  3.40025e-05
 Reference value :  3.40037e-05
 Reference value :  3.40051e-05
 Reference value :  3.40057e-05
 Reference value :  3.40071e-05
 Reference value :  3.40113e-05
 Reference value :  3.40221e-05
 Reference value :  3.40293e-05
 Reference value :  3.40345e-05
 Reference value :  3.40431e-05
 Reference value :  3.40491e-05
 Reference value :  3.40559e-05
 Reference value :  3.40795e-05
 Reference value :  3.41721e-05
 Reference value :  3.42501e-05
 Reference value :  3.42502e-05
 Reference value :  3.42502e-05
 Reference value :  3.42504e-05
 Reference value :  3.42511e-05
 Reference value :  3.42520e-05
 Reference value :  3.42540e-05
 Reference value :  3.42553e-05
 Reference value :  3.42568e-05
 Reference value :  3.42616e-05
 Reference value :  3.42978e-05
 Reference value :  3.44912e-05
 Reference value :  3.45000e-05
 Reference value :  3.45001e-05
 Reference value :  3.45002e-05
 Reference value :  3.45009e-05
 Reference value :  3.45018e-05
 Reference value :  3.45028e-05
 Reference value :  3.45040e-05
 Reference value :  3.45053e-05
 Reference value :  3.45088e-05
 Reference value :  3.45131e-05
 Reference value :  3.45165e-05
 Reference value :  3.45230e-05
 Reference value :  3.45451e-05
 Reference value :  3.47501e-05
 Reference value :  3.47502e-05
 Reference value :  3.47503e-05
 Reference value :  3.47511e-05
 Reference value :  3.47520e-05
 Reference value :  3.47540e-05
 Reference value :  3.47553e-05
 Reference value :  3.47579e-05
 Reference value :  3.47654e-05
 Reference value :  3.48315e-05
 Reference value :  3.50000e-05
 Reference value :  3.50001e-05
 Reference value :  3.50002e-05
 Reference value :  3.50009e-05
 Reference value :  3.50018e-05
 Reference value :  3.50028e-05
 Reference value :  3.50040e-05
 Reference value :  3.50046e-05
 Reference value :  3.50058e-05
 Reference value :  3.50071e-05
 Reference value :  3.50126e-05
 Reference value :  3.50154e-05
 Reference value :  3.50191e-05
 Reference value :  3.50235e-05
 Reference value :  3.50431e-05
 Reference value :  3.50539e-05
 Reference value :  3.50713e-05
 Reference value :  3.51621e-05
 Reference value :  3.52502e-05
 Reference value :  3.52504e-05
 Reference value :  3.52520e-05
 Reference value :  3.52540e-05
 Reference value :  3.52554e-05
 Reference value :  3.52571e-05
 Reference value :  3.52623e-05
 Reference value :  3.53021e-05
 Reference value :  3.55000e-05
 Reference value :  3.55001e-05
 Reference value :  3.55002e-05
 Reference value :  3.55013e-05
 Reference value :  3.55027e-05
 Reference value :  3.55049e-05
 Reference value :  3.55075e-05
 Reference value :  3.55106e-05
 Reference value :  3.55141e-05
 Reference value :  3.55663e-05
 Reference value :  3.57501e-05
 Reference value :  3.57502e-05
 Reference value :  3.57503e-05
 Reference value :  3.57511e-05
 Reference value :  3.57520e-05
 Reference value :  3.57540e-05
 Reference value :  3.57560e-05
 Reference value :  3.57588e-05
 Reference value :  3.57655e-05
 Reference value :  3.58216e-05
 Reference value :  3.60015e-05
 Reference value :  3.60061e-05
 Reference value :  3.60089e-05
 Reference value :  3.60125e-05
 Reference value :  3.60148e-05
 Reference value :  3.60174e-05
 Reference value :  3.60206e-05
 Reference value :  3.60283e-05
 Reference value :  3.61148e-05
 Reference value :  3.62501e-05
 Reference value :  3.62502e-05
 Reference value :  3.62503e-05
 Reference value :  3.62511e-05
 Reference value :  3.62520e-05
 Reference value :  3.62533e-05
 Reference value :  3.62546e-05
 Reference value :  3.62568e-05
 Reference value :  3.62616e-05
 Reference value :  3.62979e-05
 Reference value :  3.65000e-05
 Reference value :  3.65001e-05
 Reference value :  3.65001e-05
 Reference value :  3.65003e-05
 Reference value :  3.65013e-05
 Reference value :  3.65027e-05
 Reference value :  3.65056e-05
 Reference value :  3.65075e-05
 Reference value :  3.65095e-05
 Reference value :  3.65128e-05
 Reference value :  3.65283e-05
 Reference value :  3.67501e-05
 Reference value :  3.67502e-05
 Reference value :  3.67504e-05
 Reference value :  3.67515e-05
 Reference value :  3.67525e-05
 Reference value :  3.67546e-05
 Reference value :  3.67579e-05
 Reference value :  3.67613e-05
 Reference value :  3.67840e-05
 Reference value :  3.70000e-05
 Reference value :  3.70001e-05
 Reference value :  3.70002e-05
 Reference value :  3.70013e-05
 Reference value :  3.70022e-05
 Reference value :  3.70046e-05
 Reference value :  3.70064e-05
 Reference value :  3.70105e-05
 Reference value :  3.70138e-05
 Reference value :  3.70184e-05
 Reference value :  3.70244e-05
 Reference value :  3.70701e-05
 Reference value :  3.71019e-05
 Reference value :  3.71209e-05
 Reference value :  3.71420e-05
 Reference value :  3.71862e-05
 Reference value :  3.72501e-05
 Reference value :  3.72503e-05
 Reference value :  3.72511e-05
 Reference value :  3.72525e-05
 Reference value :  3.72546e-05
 Reference value :  3.72578e-05
 Reference value :  3.72705e-05
 Reference value :  3.73178e-05
 Reference value :  3.73573e-05
 Reference value :  3.73842e-05
 Reference value :  3.74208e-05
 Reference value :  3.75000e-05
 Reference value :  3.75001e-05
 Reference value :  3.75005e-05
 Reference value :  3.75018e-05
 Reference value :  3.75033e-05
 Reference value :  3.75056e-05
 Reference value :  3.75076e-05
 Reference value :  3.75106e-05
 Reference value :  3.75141e-05
 Reference value :  3.75662e-05
 Reference value :  3.77501e-05
 Reference value :  3.77503e-05
 Reference value :  3.77511e-05
 Reference value :  3.77520e-05
 Reference value :  3.77540e-05
 Reference value :  3.77553e-05
 Reference value :  3.77578e-05
 Reference value :  3.77612e-05
 Reference value :  3.77690e-05
 Reference value :  3.78212e-05
 Reference value :  3.80000e-05
 Reference value :  3.80001e-05
 Reference value :  3.80003e-05
 Reference value :  3.80013e-05
 Reference value :  3.80022e-05
 Reference value :  3.80040e-05
 Reference value :  3.80052e-05
 Reference value :  3.80064e-05
 Reference value :  3.80090e-05
 Reference value :  3.80114e-05
 Reference value :  3.80138e-05
 Reference value :  3.80159e-05
 Reference value :  3.80194e-05
 Reference value :  3.80236e-05
 Reference value :  3.80282e-05
 Reference value :  3.80342e-05
 Reference value :  3.80374e-05
 Reference value :  3.80397e-05
 Reference value :  3.80467e-05
 Reference value :  3.80605e-05
 Reference value :  3.81111e-05
 Reference value :  3.82501e-05
 Reference value :  3.82502e-05
 Reference value :  3.82503e-05
 Reference value :  3.82511e-05
 Reference value :  3.82520e-05
 Reference value :  3.82540e-05
 Reference value :  3.82553e-05
 Reference value :  3.82568e-05
 Reference value :  3.82616e-05
 Reference value :  3.83302e-05
 Reference value :  3.85000e-05
 Reference value :  3.85000e-05
 Reference value :  3.85002e-05
 Reference value :  3.85005e-05
 Reference value :  3.85012e-05
 Reference value :  3.85021e-05
 Reference value :  3.85039e-05
 Reference value :  3.85063e-05
 Reference value :  3.85096e-05
 Reference value :  3.85132e-05
 Reference value :  3.85276e-05
 Reference value :  3.86646e-05
 Reference value :  3.87502e-05
 Reference value :  3.87502e-05
 Reference value :  3.87504e-05
 Reference value :  3.87515e-05
 Reference value :  3.87525e-05
 Reference value :  3.87540e-05
 Reference value :  3.87553e-05
 Reference value :  3.87578e-05
 Reference value :  3.87711e-05
 Reference value :  3.88875e-05
 Reference value :  3.90000e-05
 Reference value :  3.90001e-05
 Reference value :  3.90002e-05
 Reference value :  3.90009e-05
 Reference value :  3.90013e-05
 Reference value :  3.90022e-05
 Reference value :  3.90034e-05
 Reference value :  3.90046e-05
 Reference value :  3.90058e-05
 Reference value :  3.90071e-05
 Reference value :  3.90106e-05
 Reference value :  3.90140e-05
 Reference value :  3.90153e-05
 Reference value :  3.90179e-05
 Reference value :  3.90190e-05
 Reference value :  3.90215e-05
 Reference value :  3.90278e-05
 Reference value :  3.90474e-05
 Reference value :  3.90553e-05
 Reference value :  3.90607e-05
 Reference value :  3.90725e-05
 Reference value :  3.91012e-05
 Reference value :  3.91584e-05
 Reference value :  3.92288e-05
 Reference value :  3.92501e-05
 Reference value :  3.92503e-05
 Reference value :  3.92511e-05
 Reference value :  3.92520e-05
 Reference value :  3.92540e-05
 Reference value :  3.92553e-05
 Reference value :  3.92578e-05
 Reference value :  3.92707e-05
 Reference value :  3.93864e-05
 Reference value :  3.95000e-05
 Reference value :  3.95001e-05
 Reference value :  3.95002e-05
 Reference value :  3.95009e-05
 Reference value :  3.95018e-05
 Reference value :  3.95028e-05
 Reference value :  3.95046e-05
 Reference value :  3.95063e-05
 Reference value :  3.95083e-05
 Reference value :  3.95102e-05
 Reference value :  3.95124e-05
 Reference value :  3.95309e-05
 Reference value :  3.97501e-05
 Reference value :  3.97502e-05
 Reference value :  3.97503e-05
 Reference value :  3.97507e-05
 Reference value :  3.97520e-05
 Reference value :  3.97541e-05
 Reference value :  3.97554e-05
 Reference value :  3.97579e-05
 Reference value :  3.97715e-05
 Reference value :  3.99780e-05
 Reference value :  4.00001e-05
 Reference value :  4.00002e-05
 Reference value :  4.00009e-05
 Reference value :  4.00022e-05
 Reference value :  4.00040e-05
 Reference value :  4.00052e-05
 Reference value :  4.00058e-05
 Reference value :  4.00080e-05
 Reference value :  4.00126e-05
 Reference value :  4.00154e-05
 Reference value :  4.00191e-05
 Reference value :  4.00234e-05
 Reference value :  4.00331e-05
 Reference value :  4.00453e-05
 Reference value :  4.00559e-05
 Reference value :  4.00673e-05
 Reference value :  4.01008e-05
 Reference value :  4.02501e-05
 Reference value :  4.02502e-05
 Reference value :  4.02503e-05
 Reference value :  4.02507e-05
 Reference value :  4.02520e-05
 Reference value :  4.02533e-05
 Reference value :  4.02546e-05
 Reference value :  4.02569e-05
 Reference value :  4.02618e-05
 Reference value :  4.02815e-05
 Reference value :  4.04967e-05
 Reference value :  4.05000e-05
 Reference value :  4.05001e-05
 Reference value :  4.05002e-05
 Reference value :  4.05009e-05
 Reference value :  4.05013e-05
 Reference value :  4.05022e-05
 Reference value :  4.05041e-05
 Reference value :  4.05067e-05
 Reference value :  4.05084e-05
 Reference value :  4.05116e-05
 Reference value :  4.05207e-05
 Reference value :  4.07501e-05
 Reference value :  4.07502e-05
 Reference value :  4.07507e-05
 Reference value :  4.07520e-05
 Reference value :  4.07540e-05
 Reference value :  4.07546e-05
 Reference value :  4.07560e-05
 Reference value :  4.07579e-05
 Reference value :  4.07612e-05
 Reference value :  4.07690e-05
 Reference value :  4.08216e-05
 Reference value :  4.10013e-05
 Reference value :  4.10053e-05
 Reference value :  4.10076e-05
 Reference value :  4.10113e-05
 Reference value :  4.10139e-05
 Reference value :  4.10161e-05
 Reference value :  4.10182e-05
 Reference value :  4.10204e-05
 Reference value :  4.10252e-05
 Reference value :  4.10624e-05
 Reference value :  4.10934e-05
 Reference value :  4.11384e-05
 Reference value :  4.12501e-05
 Reference value :  4.12502e-05
 Reference value :  4.12503e-05
 Reference value :  4.12507e-05
 Reference value :  4.12515e-05
 Reference value :  4.12526e-05
 Reference value :  4.12540e-05
 Reference value :  4.12553e-05
 Reference value :  4.12578e-05
 Reference value :  4.12706e-05
 Reference value :  4.14961e-05
 Reference value :  4.15001e-05
 Reference value :  4.15002e-05
 Reference value :  4.15009e-05
 Reference value :  4.15018e-05
 Reference value :  4.15034e-05
 Reference value :  4.15046e-05
 Reference value :  4.15074e-05
 Reference value :  4.15106e-05
 Reference value :  4.15129e-05
 Reference value :  4.15283e-05
 Reference value :  4.16902e-05
 Reference value :  4.17502e-05
 Reference value :  4.17502e-05
 Reference value :  4.17504e-05
 Reference value :  4.17515e-05
 Reference value :  4.17525e-05
 Reference value :  4.17540e-05
 Reference value :  4.17553e-05
 Reference value :  4.17579e-05
 Reference value :  4.17712e-05
 Reference value :  4.19969e-05
 Reference value :  4.20001e-05
 Reference value :  4.20002e-05
 Reference value :  4.20009e-05
 Reference value :  4.20018e-05
 Reference value :  4.20034e-05
 Reference value :  4.20046e-05
 Reference value :  4.20058e-05
 Reference value :  4.20071e-05
 Reference value :  4.20100e-05
 Reference value :  4.20179e-05
 Reference value :  4.20854e-05
 Reference value :  4.22501e-05
 Reference value :  4.22502e-05
 Reference value :  4.22507e-05
 Reference value :  4.22520e-05
 Reference value :  4.22542e-05
 Reference value :  4.22585e-05
 Reference value :  4.22804e-05
 Reference value :  4.25000e-05
 Reference value :  4.25000e-05
 Reference value :  4.25000e-05
 Reference value :  4.25001e-05
 Reference value :  4.25001e-05
 Reference value :  4.25008e-05
 Reference value :  4.25024e-05
 Reference value :  4.25037e-05
 Reference value :  4.25057e-05
 Reference value :  4.25079e-05
 Reference value :  4.25221e-05
 Reference value :  4.25288e-05
 Reference value :  4.25337e-05
 Reference value :  4.25407e-05
 Reference value :  4.25455e-05
 Reference value :  4.25500e-05
 Reference value :  4.25593e-05
 Reference value :  4.25819e-05
 Reference value :  4.26403e-05
 Reference value :  4.27501e-05
 Reference value :  4.27502e-05
 Reference value :  4.27503e-05
 Reference value :  4.27507e-05
 Reference value :  4.27520e-05
 Reference value :  4.27540e-05
 Reference value :  4.27553e-05
 Reference value :  4.27568e-05
 Reference value :  4.27648e-05
 Reference value :  4.28294e-05
 Reference value :  4.30000e-05
 Reference value :  4.30001e-05
 Reference value :  4.30003e-05
 Reference value :  4.30013e-05
 Reference value :  4.30022e-05
 Reference value :  4.30040e-05
 Reference value :  4.30053e-05
 Reference value :  4.30088e-05
 Reference value :  4.30131e-05
 Reference value :  4.30164e-05
 Reference value :  4.30204e-05
 Reference value :  4.30268e-05
 Reference value :  4.30624e-05
 Reference value :  4.32501e-05
 Reference value :  4.32501e-05
 Reference value :  4.32502e-05
 Reference value :  4.32503e-05
 Reference value :  4.32507e-05
 Reference value :  4.32515e-05
 Reference value :  4.32520e-05
 Reference value :  4.32533e-05
 Reference value :  4.32546e-05
 Reference value :  4.32560e-05
 Reference value :  4.32579e-05
 Reference value :  4.32654e-05
 Reference value :  4.32996e-05
 Reference value :  4.34962e-05
 Reference value :  4.35001e-05
 Reference value :  4.35001e-05
 Reference value :  4.35007e-05
 Reference value :  4.35020e-05
 Reference value :  4.35037e-05
 Reference value :  4.35057e-05
 Reference value :  4.35069e-05
 Reference value :  4.35100e-05
 Reference value :  4.35136e-05
 Reference value :  4.35165e-05
 Reference value :  4.35192e-05
 Reference value :  4.35239e-05
 Reference value :  4.35347e-05
 Reference value :  4.35436e-05
 Reference value :  4.35510e-05
 Reference value :  4.35570e-05
 Reference value :  4.35704e-05
 Reference value :  4.36006e-05
 Reference value :  4.37501e-05
 Reference value :  4.37501e-05
 Reference value :  4.37502e-05
 Reference value :  4.37503e-05
 Reference value :  4.37511e-05
 Reference value :  4.37520e-05
 Reference value :  4.37533e-05
 Reference value :  4.37547e-05
 Reference value :  4.37561e-05
 Reference value :  4.37599e-05
 Reference value :  4.37833e-05
 Reference value :  4.38880e-05
 Reference value :  4.40000e-05
 Reference value :  4.40001e-05
 Reference value :  4.40002e-05
 Reference value :  4.40009e-05
 Reference value :  4.40018e-05
 Reference value :  4.40027e-05
 Reference value :  4.40049e-05
 Reference value :  4.40067e-05
 Reference value :  4.40075e-05
 Reference value :  4.40095e-05
 Reference value :  4.40128e-05
 Reference value :  4.40208e-05
 Reference value :  4.41144e-05
 Reference value :  4.42501e-05
 Reference value :  4.42502e-05
 Reference value :  4.42504e-05
 Reference value :  4.42515e-05
 Reference value :  4.42525e-05
 Reference value :  4.42546e-05
 Reference value :  4.42569e-05
 Reference value :  4.42599e-05
 Reference value :  4.42690e-05
 Reference value :  4.43212e-05
 Reference value :  4.45000e-05
 Reference value :  4.45001e-05
 Reference value :  4.45002e-05
 Reference value :  4.45009e-05
 Reference value :  4.45018e-05
 Reference value :  4.45028e-05
 Reference value :  4.45046e-05
 Reference value :  4.45064e-05
 Reference value :  4.45105e-05
 Reference value :  4.45126e-05
 Reference value :  4.45151e-05
 Reference value :  4.45172e-05
 Reference value :  4.45208e-05
 Reference value :  4.45307e-05
 Reference value :  4.46038e-05
 Reference value :  4.47104e-05
 Reference value :  4.47501e-05
 Reference value :  4.47502e-05
 Reference value :  4.47507e-05
 Reference value :  4.47520e-05
 Reference value :  4.47540e-05
 Reference value :  4.47553e-05
 Reference value :  4.47568e-05
 Reference value :  4.47616e-05
 Reference value :  4.47980e-05
 Reference value :  4.50000e-05
 Reference value :  4.50001e-05
 Reference value :  4.50002e-05
 Reference value :  4.50009e-05
 Reference value :  4.50018e-05
 Reference value :  4.50027e-05
 Reference value :  4.50049e-05
 Reference value :  4.50067e-05
 Reference value :  4.50075e-05
 Reference value :  4.50095e-05
 Reference value :  4.50128e-05
 Reference value :  4.50419e-05
 Reference value :  4.52501e-05
 Reference value :  4.52502e-05
 Reference value :  4.52503e-05
 Reference value :  4.52507e-05
 Reference value :  4.52520e-05
 Reference value :  4.52540e-05
 Reference value :  4.52553e-05
 Reference value :  4.52569e-05
 Reference value :  4.52599e-05
 Reference value :  4.52690e-05
 Reference value :  4.53572e-05
 Reference value :  4.55000e-05
 Reference value :  4.55001e-05
 Reference value :  4.55002e-05
 Reference value :  4.55005e-05
 Reference value :  4.55013e-05
 Reference value :  4.55022e-05
 Reference value :  4.55040e-05
 Reference value :  4.55046e-05
 Reference value :  4.55058e-05
 Reference value :  4.55080e-05
 Reference value :  4.55115e-05
 Reference value :  4.55138e-05
 Reference value :  4.55161e-05
 Reference value :  4.55195e-05
 Reference value :  4.55244e-05
 Reference value :  4.55693e-05
 Reference value :  4.56005e-05
 Reference value :  4.56127e-05
 Reference value :  4.56182e-05
 Reference value :  4.56381e-05
 Reference value :  4.56793e-05
 Reference value :  4.57501e-05
 Reference value :  4.57502e-05
 Reference value :  4.57504e-05
 Reference value :  4.57515e-05
 Reference value :  4.57533e-05
 Reference value :  4.57546e-05
 Reference value :  4.57568e-05
 Reference value :  4.57650e-05
 Reference value :  4.58221e-05
 Reference value :  4.58484e-05
 Reference value :  4.58898e-05
 Reference value :  4.59178e-05
 Reference value :  4.60000e-05
 Reference value :  4.60005e-05
 Reference value :  4.60020e-05
 Reference value :  4.60039e-05
 Reference value :  4.60066e-05
 Reference value :  4.60084e-05
 Reference value :  4.60107e-05
 Reference value :  4.60145e-05
 Reference value :  4.60379e-05
 Reference value :  4.62378e-05
 Reference value :  4.62501e-05
 Reference value :  4.62502e-05
 Reference value :  4.62504e-05
 Reference value :  4.62510e-05
 Reference value :  4.62520e-05
 Reference value :  4.62532e-05
 Reference value :  4.62546e-05
 Reference value :  4.62560e-05
 Reference value :  4.62578e-05
 Reference value :  4.62599e-05
 Reference value :  4.62654e-05
 Reference value :  4.62837e-05
 Reference value :  4.63581e-05
 Reference value :  4.65000e-05
[...]
 Reference value :  1.66590e-04
 Reference value :  1.66673e-04
 Reference value :  1.66750e-04
 Reference value :  1.66750e-04
 Reference value :  1.66750e-04
 Reference value :  1.66752e-04
 Reference value :  1.66752e-04
 Reference value :  1.66753e-04
 Reference value :  1.66755e-04
 Reference value :  1.66756e-04
 Reference value :  1.66758e-04
 Reference value :  1.66765e-04
 Reference value :  1.66798e-04
 Reference value :  1.67000e-04
 Reference value :  1.67000e-04
 Reference value :  1.67000e-04
 Reference value :  1.67000e-04
 Reference value :  1.67001e-04
 Reference value :  1.67002e-04
 Reference value :  1.67004e-04
 Reference value :  1.67007e-04
 Reference value :  1.67008e-04
 Reference value :  1.67012e-04
 Reference value :  1.67021e-04
 Reference value :  1.67211e-04
 Reference value :  1.67250e-04
 Reference value :  1.67250e-04
 Reference value :  1.67251e-04
 Reference value :  1.67253e-04
 Reference value :  1.67254e-04
 Reference value :  1.67255e-04
 Reference value :  1.67257e-04
 Reference value :  1.67260e-04
 Reference value :  1.67269e-04
 Reference value :  1.67321e-04
 Reference value :  1.67500e-04
 Reference value :  1.67500e-04
 Reference value :  1.67500e-04
 Reference value :  1.67501e-04
 Reference value :  1.67501e-04
 Reference value :  1.67502e-04
 Reference value :  1.67505e-04
 Reference value :  1.67506e-04
 Reference value :  1.67507e-04
 Reference value :  1.67510e-04
 Reference value :  1.67513e-04
 Reference value :  1.67515e-04
 Reference value :  1.67517e-04
 Reference value :  1.67520e-04
 Reference value :  1.67525e-04
 Reference value :  1.67541e-04
 Reference value :  1.67608e-04
 Reference value :  1.67672e-04
 Reference value :  1.67750e-04
 Reference value :  1.67750e-04
 Reference value :  1.67751e-04
 Reference value :  1.67752e-04
 Reference value :  1.67754e-04
 Reference value :  1.67755e-04
 Reference value :  1.67757e-04
 Reference value :  1.67765e-04
 Reference value :  1.67830e-04
 Reference value :  1.68000e-04
 Reference value :  1.68000e-04
 Reference value :  1.68000e-04
 Reference value :  1.68000e-04
 Reference value :  1.68001e-04
 Reference value :  1.68002e-04
 Reference value :  1.68004e-04
 Reference value :  1.68007e-04
 Reference value :  1.68008e-04
 Reference value :  1.68011e-04
 Reference value :  1.68014e-04
 Reference value :  1.68042e-04
 Reference value :  1.68250e-04
 Reference value :  1.68250e-04
 Reference value :  1.68250e-04
 Reference value :  1.68251e-04
 Reference value :  1.68252e-04
 Reference value :  1.68254e-04
 Reference value :  1.68255e-04
 Reference value :  1.68257e-04
 Reference value :  1.68260e-04
 Reference value :  1.68269e-04
 Reference value :  1.68358e-04
 Reference value :  1.68500e-04
 Reference value :  1.68500e-04
 Reference value :  1.68501e-04
 Reference value :  1.68502e-04
 Reference value :  1.68504e-04
 Reference value :  1.68505e-04
 Reference value :  1.68506e-04
 Reference value :  1.68507e-04
 Reference value :  1.68509e-04
 Reference value :  1.68511e-04
 Reference value :  1.68514e-04
 Reference value :  1.68517e-04
 Reference value :  1.68520e-04
 Reference value :  1.68525e-04
 Reference value :  1.68570e-04
 Reference value :  1.68626e-04
 Reference value :  1.68661e-04
 Reference value :  1.68739e-04
 Reference value :  1.68750e-04
 Reference value :  1.68750e-04
 Reference value :  1.68752e-04
 Reference value :  1.68754e-04
 Reference value :  1.68756e-04
 Reference value :  1.68762e-04
 Reference value :  1.68799e-04
 Reference value :  1.69000e-04
 Reference value :  1.69000e-04
 Reference value :  1.69000e-04
 Reference value :  1.69001e-04
 Reference value :  1.69003e-04
 Reference value :  1.69005e-04
 Reference value :  1.69007e-04
 Reference value :  1.69010e-04
 Reference value :  1.69016e-04
 Reference value :  1.69167e-04
 Reference value :  1.69250e-04
 Reference value :  1.69250e-04
 Reference value :  1.69251e-04
 Reference value :  1.69252e-04
 Reference value :  1.69254e-04
 Reference value :  1.69255e-04
 Reference value :  1.69258e-04
 Reference value :  1.69270e-04
 Reference value :  1.69373e-04
 Reference value :  1.69500e-04
 Reference value :  1.69500e-04
 Reference value :  1.69500e-04
 Reference value :  1.69501e-04
 Reference value :  1.69501e-04
 Reference value :  1.69502e-04
 Reference value :  1.69503e-04
 Reference value :  1.69505e-04
 Reference value :  1.69506e-04
 Reference value :  1.69506e-04
 Reference value :  1.69508e-04
 Reference value :  1.69510e-04
 Reference value :  1.69513e-04
 Reference value :  1.69524e-04
 Reference value :  1.69595e-04
 Reference value :  1.69750e-04
 Reference value :  1.69750e-04
 Reference value :  1.69750e-04
 Reference value :  1.69750e-04
 Reference value :  1.69751e-04
 Reference value :  1.69752e-04
 Reference value :  1.69753e-04
 Reference value :  1.69755e-04
 Reference value :  1.69757e-04
 Reference value :  1.69763e-04
 Reference value :  1.69780e-04
 Reference value :  1.69855e-04
 Reference value :  1.69912e-04
 Reference value :  1.69954e-04
 Reference value :  1.70000e-04
 Reference value :  1.70000e-04
 Reference value :  1.70000e-04
 Reference value :  1.70000e-04
 Reference value :  1.70000e-04
 Reference value :  1.70000e-04
 Reference value :  1.70000e-04
 Reference value :  1.70000e-04
 Reference value :  1.70001e-04
 Reference value :  1.70002e-04
 Reference value :  1.70004e-04
 Reference value :  1.70005e-04
 Reference value :  1.70006e-04
 Reference value :  1.70009e-04
 Reference value :  1.70029e-04
 Reference value :  1.70034e-04
 Reference value :  1.70041e-04
 Reference value :  1.70045e-04
 Reference value :  1.70051e-04
 Reference value :  1.70060e-04
 Reference value :  1.70110e-04
 Reference value :  1.70218e-04
 Reference value :  1.70250e-04
 Reference value :  1.70250e-04
 Reference value :  1.70250e-04
 Reference value :  1.70251e-04
 Reference value :  1.70252e-04
 Reference value :  1.70253e-04
 Reference value :  1.70254e-04
 Reference value :  1.70255e-04
 Reference value :  1.70256e-04
 Reference value :  1.70259e-04
 Reference value :  1.70281e-04
 Reference value :  1.70493e-04
 Reference value :  1.70500e-04
 Reference value :  1.70500e-04
 Reference value :  1.70501e-04
 Reference value :  1.70502e-04
 Reference value :  1.70503e-04
 Reference value :  1.70505e-04
 Reference value :  1.70507e-04
 Reference value :  1.70509e-04
 Reference value :  1.70512e-04
 Reference value :  1.70515e-04
 Reference value :  1.70518e-04
 Reference value :  1.70527e-04
 Reference value :  1.70677e-04
 Reference value :  1.70750e-04
 Reference value :  1.70750e-04
 Reference value :  1.70751e-04
 Reference value :  1.70752e-04
 Reference value :  1.70752e-04
 Reference value :  1.70753e-04
 Reference value :  1.70755e-04
 Reference value :  1.70756e-04
 Reference value :  1.70758e-04
 Reference value :  1.70765e-04
 Reference value :  1.70800e-04
 Reference value :  1.70996e-04
 Reference value :  1.71000e-04
 Reference value :  1.71000e-04
 Reference value :  1.71000e-04
 Reference value :  1.71000e-04
 Reference value :  1.71001e-04
 Reference value :  1.71002e-04
 Reference value :  1.71003e-04
 Reference value :  1.71005e-04
 Reference value :  1.71006e-04
 Reference value :  1.71007e-04
 Reference value :  1.71013e-04
 Reference value :  1.71015e-04
 Reference value :  1.71018e-04
 Reference value :  1.71020e-04
 Reference value :  1.71025e-04
 Reference value :  1.71040e-04
 Reference value :  1.71051e-04
 Reference value :  1.71059e-04
 Reference value :  1.71067e-04
 Reference value :  1.71089e-04
 Reference value :  1.71250e-04
 Reference value :  1.71250e-04
 Reference value :  1.71250e-04
 Reference value :  1.71252e-04
 Reference value :  1.71254e-04
 Reference value :  1.71255e-04
 Reference value :  1.71257e-04
 Reference value :  1.71262e-04
 Reference value :  1.71283e-04
 Reference value :  1.71388e-04
 Reference value :  1.71500e-04
 Reference value :  1.71500e-04
 Reference value :  1.71500e-04
 Reference value :  1.71501e-04
 Reference value :  1.71501e-04
 Reference value :  1.71502e-04
 Reference value :  1.71504e-04
 Reference value :  1.71506e-04
 Reference value :  1.71508e-04
 Reference value :  1.71511e-04
 Reference value :  1.71514e-04
 Reference value :  1.71566e-04
 Reference value :  1.71750e-04
 Reference value :  1.71750e-04
 Reference value :  1.71750e-04
 Reference value :  1.71751e-04
 Reference value :  1.71752e-04
 Reference value :  1.71752e-04
 Reference value :  1.71754e-04
 Reference value :  1.71755e-04
 Reference value :  1.71756e-04
 Reference value :  1.71758e-04
 Reference value :  1.71761e-04
 Reference value :  1.71769e-04
 Reference value :  1.71822e-04
 Reference value :  1.72000e-04
 Reference value :  1.72000e-04
 Reference value :  1.72000e-04
 Reference value :  1.72001e-04
 Reference value :  1.72001e-04
 Reference value :  1.72002e-04
 Reference value :  1.72004e-04
 Reference value :  1.72005e-04
 Reference value :  1.72006e-04
 Reference value :  1.72010e-04
 Reference value :  1.72013e-04
 Reference value :  1.72015e-04
 Reference value :  1.72017e-04
 Reference value :  1.72019e-04
 Reference value :  1.72024e-04
 Reference value :  1.72049e-04
 Reference value :  1.72159e-04
 Reference value :  1.72245e-04
 Reference value :  1.72250e-04
 Reference value :  1.72250e-04
 Reference value :  1.72250e-04
 Reference value :  1.72251e-04
 Reference value :  1.72252e-04
 Reference value :  1.72253e-04
 Reference value :  1.72254e-04
 Reference value :  1.72255e-04
 Reference value :  1.72257e-04
 Reference value :  1.72262e-04
 Reference value :  1.72298e-04
 Reference value :  1.72500e-04
 Reference value :  1.72500e-04
 Reference value :  1.72500e-04
 Reference value :  1.72501e-04
 Reference value :  1.72502e-04
 Reference value :  1.72504e-04
 Reference value :  1.72507e-04
 Reference value :  1.72508e-04
 Reference value :  1.72511e-04
 Reference value :  1.72513e-04
 Reference value :  1.72521e-04
 Reference value :  1.72614e-04
 Reference value :  1.72750e-04
 Reference value :  1.72750e-04
 Reference value :  1.72750e-04
 Reference value :  1.72751e-04
 Reference value :  1.72752e-04
 Reference value :  1.72754e-04
 Reference value :  1.72755e-04
 Reference value :  1.72757e-04
 Reference value :  1.72759e-04
 Reference value :  1.72763e-04
 Reference value :  1.72784e-04
 Reference value :  1.72916e-04
 Reference value :  1.73000e-04
 Reference value :  1.73000e-04
 Reference value :  1.73000e-04
 Reference value :  1.73001e-04
 Reference value :  1.73002e-04
 Reference value :  1.73004e-04
 Reference value :  1.73005e-04
 Reference value :  1.73006e-04
 Reference value :  1.73007e-04
 Reference value :  1.73009e-04
 Reference value :  1.73011e-04
 Reference value :  1.73014e-04
 Reference value :  1.73016e-04
 Reference value :  1.73018e-04
 Reference value :  1.73021e-04
 Reference value :  1.73025e-04
 Reference value :  1.73033e-04
 Reference value :  1.73052e-04
 Reference value :  1.73077e-04
 Reference value :  1.73089e-04
 Reference value :  1.73095e-04
 Reference value :  1.73108e-04
 Reference value :  1.73137e-04
 Reference value :  1.73230e-04
 Reference value :  1.73250e-04
 Reference value :  1.73250e-04
 Reference value :  1.73251e-04
 Reference value :  1.73252e-04
 Reference value :  1.73253e-04
 Reference value :  1.73255e-04
 Reference value :  1.73257e-04
 Reference value :  1.73262e-04
 Reference value :  1.73298e-04
 Reference value :  1.73500e-04
 Reference value :  1.73500e-04
 Reference value :  1.73501e-04
 Reference value :  1.73502e-04
 Reference value :  1.73504e-04
 Reference value :  1.73506e-04
 Reference value :  1.73508e-04
 Reference value :  1.73512e-04
 Reference value :  1.73589e-04
 Reference value :  1.73750e-04
 Reference value :  1.73751e-04
 Reference value :  1.73753e-04
 Reference value :  1.73755e-04
 Reference value :  1.73760e-04
 Reference value :  1.73831e-04
 Reference value :  1.74000e-04
 Reference value :  1.74000e-04
 Reference value :  1.74001e-04
 Reference value :  1.74003e-04
 Reference value :  1.74005e-04
 Reference value :  1.74006e-04
 Reference value :  1.74013e-04
 Reference value :  1.74015e-04
 Reference value :  1.74019e-04
 Reference value :  1.74025e-04
 Reference value :  1.74036e-04
 Reference value :  1.74044e-04
 Reference value :  1.74053e-04
 Reference value :  1.74073e-04
 Reference value :  1.74126e-04
 Reference value :  1.74250e-04
 Reference value :  1.74250e-04
 Reference value :  1.74250e-04
 Reference value :  1.74252e-04
 Reference value :  1.74253e-04
 Reference value :  1.74255e-04
 Reference value :  1.74257e-04
 Reference value :  1.74262e-04
 Reference value :  1.74283e-04
 Reference value :  1.74388e-04
 Reference value :  1.74500e-04
 Reference value :  1.74500e-04
 Reference value :  1.74500e-04
 Reference value :  1.74501e-04
 Reference value :  1.74502e-04
 Reference value :  1.74503e-04
 Reference value :  1.74505e-04
 Reference value :  1.74507e-04
 Reference value :  1.74508e-04
 Reference value :  1.74509e-04
 Reference value :  1.74513e-04
 Reference value :  1.74528e-04
 Reference value :  1.74712e-04
 Reference value :  1.74750e-04
 Reference value :  1.74750e-04
 Reference value :  1.74750e-04
 Reference value :  1.74752e-04
 Reference value :  1.74753e-04
 Reference value :  1.74754e-04
 Reference value :  1.74755e-04
 Reference value :  1.74757e-04
 Reference value :  1.74759e-04
 Reference value :  1.74763e-04
 Reference value :  1.74775e-04
 Reference value :  1.74799e-04
 Reference value :  1.74858e-04
 Reference value :  1.75000e-04
 Reference value :  1.75000e-04
 Reference value :  1.75000e-04
 Reference value :  1.75000e-04
 Reference value :  1.75001e-04
 Reference value :  1.75002e-04
 Reference value :  1.75004e-04
 Reference value :  1.75005e-04
 Reference value :  1.75006e-04
 Reference value :  1.75007e-04
 Reference value :  1.75010e-04
 Reference value :  1.75011e-04
 Reference value :  1.75014e-04
 Reference value :  1.75016e-04
 Reference value :  1.75018e-04
 Reference value :  1.75021e-04
 Reference value :  1.75028e-04
 Reference value :  1.75042e-04
 Reference value :  1.75059e-04
 Reference value :  1.75085e-04
 Reference value :  1.75097e-04
 Reference value :  1.75116e-04
 Reference value :  1.75136e-04
 Reference value :  1.75240e-04
 Reference value :  1.75250e-04
 Reference value :  1.75250e-04
 Reference value :  1.75250e-04
 Reference value :  1.75251e-04
 Reference value :  1.75252e-04
 Reference value :  1.75252e-04
 Reference value :  1.75253e-04
 Reference value :  1.75255e-04
 Reference value :  1.75256e-04
 Reference value :  1.75257e-04
 Reference value :  1.75262e-04
 Reference value :  1.75281e-04
 Reference value :  1.75387e-04
 Reference value :  1.75500e-04
 Reference value :  1.75500e-04
 Reference value :  1.75500e-04
 Reference value :  1.75501e-04
 Reference value :  1.75503e-04
 Reference value :  1.75503e-04
 Reference value :  1.75506e-04
 Reference value :  1.75508e-04
 Reference value :  1.75509e-04
 Reference value :  1.75513e-04
 Reference value :  1.75521e-04
 Reference value :  1.75615e-04
 Reference value :  1.75750e-04
 Reference value :  1.75750e-04
 Reference value :  1.75750e-04
 Reference value :  1.75751e-04
 Reference value :  1.75752e-04
 Reference value :  1.75754e-04
 Reference value :  1.75755e-04
 Reference value :  1.75757e-04
 Reference value :  1.75760e-04
 Reference value :  1.75765e-04
 Reference value :  1.75798e-04
 Reference value :  1.76000e-04
 Reference value :  1.76000e-04
 Reference value :  1.76000e-04
 Reference value :  1.76001e-04
 Reference value :  1.76001e-04
 Reference value :  1.76002e-04
 Reference value :  1.76004e-04
 Reference value :  1.76005e-04
 Reference value :  1.76006e-04
 Reference value :  1.76007e-04
 Reference value :  1.76010e-04
 Reference value :  1.76011e-04
 Reference value :  1.76013e-04
 Reference value :  1.76014e-04
 Reference value :  1.76016e-04
 Reference value :  1.76019e-04
 Reference value :  1.76021e-04
 Reference value :  1.76028e-04
 Reference value :  1.76041e-04
 Reference value :  1.76083e-04
 Reference value :  1.76176e-04
 Reference value :  1.76207e-04
 Reference value :  1.76250e-04
 Reference value :  1.76250e-04
 Reference value :  1.76250e-04
 Reference value :  1.76251e-04
 Reference value :  1.76252e-04
 Reference value :  1.76254e-04
 Reference value :  1.76255e-04
 Reference value :  1.76258e-04
 Reference value :  1.76270e-04
 Reference value :  1.76500e-04
 Reference value :  1.76500e-04
 Reference value :  1.76500e-04
 Reference value :  1.76500e-04
 Reference value :  1.76500e-04
 Reference value :  1.76501e-04
 Reference value :  1.76502e-04
 Reference value :  1.76504e-04
 Reference value :  1.76506e-04
 Reference value :  1.76508e-04
 Reference value :  1.76509e-04
 Reference value :  1.76512e-04
 Reference value :  1.76514e-04
 Reference value :  1.76542e-04
 Reference value :  1.76711e-04
 Reference value :  1.76750e-04
 Reference value :  1.76750e-04
 Reference value :  1.76750e-04
 Reference value :  1.76751e-04
 Reference value :  1.76752e-04
 Reference value :  1.76752e-04
 Reference value :  1.76753e-04
 Reference value :  1.76755e-04
 Reference value :  1.76756e-04
 Reference value :  1.76757e-04
 Reference value :  1.76759e-04
 Reference value :  1.76761e-04
 Reference value :  1.76769e-04
 Reference value :  1.76799e-04
 Reference value :  1.76916e-04
 Reference value :  1.77000e-04
 Reference value :  1.77000e-04
 Reference value :  1.77000e-04
 Reference value :  1.77000e-04
 Reference value :  1.77001e-04
 Reference value :  1.77002e-04
 Reference value :  1.77003e-04
 Reference value :  1.77005e-04
 Reference value :  1.77006e-04
 Reference value :  1.77007e-04
 Reference value :  1.77010e-04
 Reference value :  1.77011e-04
 Reference value :  1.77014e-04
 Reference value :  1.77016e-04
 Reference value :  1.77019e-04
 Reference value :  1.77023e-04
 Reference value :  1.77038e-04
 Reference value :  1.77060e-04
 Reference value :  1.77083e-04
 Reference value :  1.77120e-04
 Reference value :  1.77201e-04
 Reference value :  1.77250e-04
 Reference value :  1.77250e-04
 Reference value :  1.77250e-04
 Reference value :  1.77251e-04
 Reference value :  1.77252e-04
 Reference value :  1.77254e-04
 Reference value :  1.77255e-04
 Reference value :  1.77257e-04
 Reference value :  1.77262e-04
 Reference value :  1.77281e-04
 Reference value :  1.77482e-04
 Reference value :  1.77500e-04
 Reference value :  1.77500e-04
 Reference value :  1.77500e-04
 Reference value :  1.77501e-04
 Reference value :  1.77502e-04
 Reference value :  1.77504e-04
 Reference value :  1.77505e-04
 Reference value :  1.77506e-04
 Reference value :  1.77508e-04
 Reference value :  1.77510e-04
 Reference value :  1.77512e-04
 Reference value :  1.77531e-04
 Reference value :  1.77750e-04
 Reference value :  1.77750e-04
 Reference value :  1.77750e-04
 Reference value :  1.77750e-04
 Reference value :  1.77752e-04
 Reference value :  1.77753e-04
 Reference value :  1.77755e-04
 Reference value :  1.77757e-04
 Reference value :  1.77762e-04
 Reference value :  1.77800e-04
 Reference value :  1.77978e-04
 Reference value :  1.78000e-04
 Reference value :  1.78000e-04
 Reference value :  1.78000e-04
 Reference value :  1.78000e-04
 Reference value :  1.78001e-04
 Reference value :  1.78001e-04
 Reference value :  1.78002e-04
 Reference value :  1.78003e-04
 Reference value :  1.78005e-04
 Reference value :  1.78006e-04
 Reference value :  1.78007e-04
 Reference value :  1.78010e-04
 Reference value :  1.78018e-04
 Reference value :  1.78085e-04
 Reference value :  1.78250e-04
 Reference value :  1.78250e-04
 Reference value :  1.78250e-04
 Reference value :  1.78251e-04
 Reference value :  1.78252e-04
 Reference value :  1.78254e-04
 Reference value :  1.78257e-04
 Reference value :  1.78266e-04
 Reference value :  1.78355e-04
No. of Data Rows : 26472
ngspice-44 done
