
Note: Compatibility modes selected: hs a


Circuit: ** sch_path: /home/ece/cace/sar-adc-using-sky130-pdk/runs/run_2025-09-12_01-52-15/parameters/dnl/run_0/sar_output_dnl.sch

option SCALE: Scale is set to 1e-06 for instance and model parameters
option SCALE: Scale is set to 1e-06 for instance and model parameters
option SCALE: Scale is set to 1e-06 for instance and model parameters
option SCALE: Scale is set to 1e-06 for instance and model parameters
Doing analysis at TEMP = 27.000000 and TNOM = 27.000000

Using KLU as Direct Linear Solver
Operating point simulation skipped by 'uic',
  now using transient initial conditions.
 Reference value :  1.00000e-12
 Reference value :  1.02772e-12
 Reference value :  1.08316e-12
 Reference value :  1.19404e-12
 Reference value :  1.33849e-12
 Reference value :  1.62739e-12
 Reference value :  2.20519e-12
 Reference value :  3.06280e-12
 Reference value :  3.96313e-12
 Reference value :  5.17207e-12
 Reference value :  6.88118e-12
 Reference value :  1.00294e-11
 Reference value :  1.36847e-11
 Reference value :  2.03341e-11
 Reference value :  2.72237e-11
 Reference value :  3.61417e-11
 Reference value :  4.70577e-11
 Reference value :  6.49634e-11
 Reference value :  8.44278e-11
 Reference value :  1.00000e-10
 Reference value :  1.01312e-10
 Reference value :  1.03937e-10
 Reference value :  1.09187e-10
 Reference value :  1.19686e-10
 Reference value :  1.40684e-10
 Reference value :  1.82680e-10
 Reference value :  2.66673e-10
 Reference value :  4.18273e-10
 Reference value :  5.88433e-10
 Reference value :  8.60994e-10
 Reference value :  1.24080e-09
 Reference value :  1.70086e-09
 Reference value :  2.44116e-09
 Reference value :  3.16803e-09
 Reference value :  3.84562e-09
 Reference value :  4.64016e-09
 Reference value :  5.50336e-09
 Reference value :  6.41093e-09
 Reference value :  7.63838e-09
 Reference value :  8.88038e-09
 Reference value :  1.01402e-08
 Reference value :  1.09937e-08
 Reference value :  1.17815e-08
 Reference value :  1.26863e-08
 Reference value :  1.36461e-08
 Reference value :  1.54209e-08
 Reference value :  1.77990e-08
 Reference value :  2.04905e-08
 Reference value :  2.32279e-08
 Reference value :  2.57428e-08
 Reference value :  2.85368e-08
 Reference value :  3.10959e-08
 Reference value :  3.47304e-08
 Reference value :  3.86780e-08
 Reference value :  4.42724e-08
 Reference value :  5.51683e-08
 Reference value :  7.20176e-08
 Reference value :  1.05716e-07
 Reference value :  1.60549e-07
 Reference value :  2.28183e-07
 Reference value :  2.50100e-07
 Reference value :  2.50110e-07
 Reference value :  2.50130e-07
 Reference value :  2.50170e-07
 Reference value :  2.50200e-07
 Reference value :  2.50201e-07
 Reference value :  2.50202e-07
 Reference value :  2.50204e-07
 Reference value :  2.50208e-07
 Reference value :  2.50216e-07
 Reference value :  2.50233e-07
 Reference value :  2.50267e-07
 Reference value :  2.50335e-07
 Reference value :  2.50413e-07
 Reference value :  2.50568e-07
 Reference value :  2.50718e-07
 Reference value :  2.51017e-07
 Reference value :  2.51342e-07
 Reference value :  2.51862e-07
 Reference value :  2.52430e-07
 Reference value :  2.53225e-07
 Reference value :  2.54049e-07
 Reference value :  2.55128e-07
 Reference value :  2.55880e-07
 Reference value :  2.56737e-07
 Reference value :  2.57746e-07
 Reference value :  2.58865e-07
 Reference value :  2.60185e-07
 Reference value :  2.62443e-07
 Reference value :  2.64490e-07
 Reference value :  2.68133e-07
 Reference value :  2.72915e-07
 Reference value :  2.82480e-07
 Reference value :  2.99188e-07
 Reference value :  3.27628e-07
 Reference value :  3.84509e-07
 Reference value :  4.39485e-07
 Reference value :  4.82471e-07
 Reference value :  4.98073e-07
 Reference value :  5.00000e-07
 Reference value :  5.00010e-07
 Reference value :  5.00030e-07
 Reference value :  5.00070e-07
 Reference value :  5.00100e-07
 Reference value :  5.00104e-07
 Reference value :  5.00112e-07
 Reference value :  5.00129e-07
 Reference value :  5.00162e-07
 Reference value :  5.00229e-07
 Reference value :  5.00362e-07
 Reference value :  5.00537e-07
 Reference value :  5.00888e-07
 Reference value :  5.01502e-07
 Reference value :  5.02194e-07
 Reference value :  5.02772e-07
 Reference value :  5.03491e-07
 Reference value :  5.04164e-07
 Reference value :  5.05152e-07
 Reference value :  5.06131e-07
 Reference value :  5.07110e-07
 Reference value :  5.08546e-07
 Reference value :  5.09905e-07
 Reference value :  5.11803e-07
 Reference value :  5.14081e-07
 Reference value :  5.15948e-07
 Reference value :  5.17917e-07
 Reference value :  5.19969e-07
 Reference value :  5.22368e-07
 Reference value :  5.25026e-07
 Reference value :  5.27786e-07
 Reference value :  5.32969e-07
 Reference value :  5.41029e-07
 Reference value :  5.50723e-07
 Reference value :  5.70112e-07
 Reference value :  6.07444e-07
 Reference value :  6.77307e-07
 Reference value :  7.50100e-07
 Reference value :  7.50110e-07
 Reference value :  7.50130e-07
 Reference value :  7.50170e-07
 Reference value :  7.50200e-07
 Reference value :  7.50201e-07
 Reference value :  7.50202e-07
 Reference value :  7.50205e-07
 Reference value :  7.50211e-07
 Reference value :  7.50224e-07
 Reference value :  7.50248e-07
 Reference value :  7.50297e-07
 Reference value :  7.50395e-07
 Reference value :  7.50590e-07
 Reference value :  7.50977e-07
 Reference value :  7.51389e-07
 Reference value :  7.51911e-07
 Reference value :  7.52518e-07
 Reference value :  7.53316e-07
 Reference value :  7.54225e-07
 Reference value :  7.55411e-07
 Reference value :  7.56507e-07
 Reference value :  7.57514e-07
 Reference value :  7.58594e-07
 Reference value :  7.59794e-07
 Reference value :  7.61088e-07
 Reference value :  7.62345e-07
 Reference value :  7.63797e-07
 Reference value :  7.66019e-07
 Reference value :  7.68333e-07
 Reference value :  7.72285e-07
 Reference value :  7.79745e-07
 Reference value :  7.91191e-07
 Reference value :  8.12913e-07
 Reference value :  8.49233e-07
 Reference value :  9.13029e-07
 Reference value :  1.00000e-06
 Reference value :  1.00001e-06
 Reference value :  1.00003e-06
 Reference value :  1.00007e-06
 Reference value :  1.00010e-06
 Reference value :  1.00010e-06
 Reference value :  1.00011e-06
 Reference value :  1.00013e-06
 Reference value :  1.00016e-06
 Reference value :  1.00023e-06
 Reference value :  1.00036e-06
 Reference value :  1.00054e-06
 Reference value :  1.00089e-06
 Reference value :  1.00150e-06
 Reference value :  1.00219e-06
 Reference value :  1.00281e-06
 Reference value :  1.00346e-06
 Reference value :  1.00414e-06
 Reference value :  1.00499e-06
 Reference value :  1.00588e-06
 Reference value :  1.00676e-06
 Reference value :  1.00765e-06
 Reference value :  1.00864e-06
 Reference value :  1.00967e-06
 Reference value :  1.01060e-06
 Reference value :  1.01207e-06
 Reference value :  1.01356e-06
 Reference value :  1.01595e-06
 Reference value :  1.01768e-06
 Reference value :  1.01952e-06
 Reference value :  1.02118e-06
 Reference value :  1.02266e-06
 Reference value :  1.02413e-06
 Reference value :  1.02573e-06
 Reference value :  1.02719e-06
 Reference value :  1.02902e-06
 Reference value :  1.03119e-06
 Reference value :  1.03359e-06
 Reference value :  1.03800e-06
 Reference value :  1.04419e-06
 Reference value :  1.05504e-06
 Reference value :  1.07383e-06
 Reference value :  1.10514e-06
 Reference value :  1.13830e-06
 Reference value :  1.17010e-06
 Reference value :  1.19160e-06
 Reference value :  1.21232e-06
 Reference value :  1.23132e-06
 Reference value :  1.25010e-06
 Reference value :  1.25011e-06
 Reference value :  1.25013e-06
 Reference value :  1.25017e-06
 Reference value :  1.25020e-06
 Reference value :  1.25020e-06
 Reference value :  1.25020e-06
 Reference value :  1.25021e-06
 Reference value :  1.25021e-06
 Reference value :  1.25022e-06
 Reference value :  1.25025e-06
 Reference value :  1.25029e-06
 Reference value :  1.25039e-06
 Reference value :  1.25058e-06
 Reference value :  1.25092e-06
 Reference value :  1.25135e-06
 Reference value :  1.25187e-06
 Reference value :  1.25248e-06
 Reference value :  1.25324e-06
 Reference value :  1.25412e-06
 Reference value :  1.25531e-06
 Reference value :  1.25620e-06
 Reference value :  1.25715e-06
 Reference value :  1.25821e-06
 Reference value :  1.25978e-06
 Reference value :  1.26119e-06
 Reference value :  1.26374e-06
 Reference value :  1.26666e-06
 Reference value :  1.27213e-06
 Reference value :  1.28307e-06
 Reference value :  1.30261e-06
 Reference value :  1.34170e-06
 Reference value :  1.41643e-06
 Reference value :  1.50000e-06
 Reference value :  1.50001e-06
 Reference value :  1.50003e-06
 Reference value :  1.50007e-06
 Reference value :  1.50010e-06
 Reference value :  1.50010e-06
 Reference value :  1.50011e-06
 Reference value :  1.50013e-06
 Reference value :  1.50016e-06
 Reference value :  1.50023e-06
 Reference value :  1.50036e-06
 Reference value :  1.50053e-06
 Reference value :  1.50087e-06
 Reference value :  1.50145e-06
 Reference value :  1.50221e-06
 Reference value :  1.50288e-06
 Reference value :  1.50356e-06
 Reference value :  1.50426e-06
 Reference value :  1.50524e-06
 Reference value :  1.50619e-06
 Reference value :  1.50715e-06
 Reference value :  1.50858e-06
 Reference value :  1.50996e-06
 Reference value :  1.51126e-06
 Reference value :  1.51268e-06
 Reference value :  1.51423e-06
 Reference value :  1.51590e-06
 Reference value :  1.51747e-06
 Reference value :  1.51954e-06
 Reference value :  1.52176e-06
 Reference value :  1.52567e-06
 Reference value :  1.53154e-06
 Reference value :  1.54181e-06
 Reference value :  1.56080e-06
 Reference value :  1.59415e-06
 Reference value :  1.65755e-06
 Reference value :  1.75010e-06
 Reference value :  1.75011e-06
 Reference value :  1.75013e-06
 Reference value :  1.75017e-06
 Reference value :  1.75020e-06
 Reference value :  1.75020e-06
 Reference value :  1.75020e-06
 Reference value :  1.75021e-06
 Reference value :  1.75021e-06
 Reference value :  1.75022e-06
 Reference value :  1.75025e-06
 Reference value :  1.75029e-06
 Reference value :  1.75039e-06
 Reference value :  1.75058e-06
 Reference value :  1.75092e-06
 Reference value :  1.75135e-06
 Reference value :  1.75187e-06
 Reference value :  1.75248e-06
 Reference value :  1.75324e-06
 Reference value :  1.75411e-06
 Reference value :  1.75529e-06
 Reference value :  1.75619e-06
 Reference value :  1.75714e-06
 Reference value :  1.75818e-06
 Reference value :  1.75930e-06
 Reference value :  1.76053e-06
 Reference value :  1.76297e-06
 Reference value :  1.76560e-06
 Reference value :  1.77023e-06
 Reference value :  1.77861e-06
 Reference value :  1.79536e-06
 Reference value :  1.82888e-06
 Reference value :  1.89402e-06
 Reference value :  2.00000e-06
 Reference value :  2.00001e-06
 Reference value :  2.00003e-06
 Reference value :  2.00007e-06
 Reference value :  2.00010e-06
 Reference value :  2.00010e-06
 Reference value :  2.00011e-06
 Reference value :  2.00013e-06
 Reference value :  2.00016e-06
 Reference value :  2.00023e-06
 Reference value :  2.00036e-06
 Reference value :  2.00053e-06
 Reference value :  2.00087e-06
 Reference value :  2.00145e-06
 Reference value :  2.00221e-06
 Reference value :  2.00288e-06
 Reference value :  2.00356e-06
 Reference value :  2.00427e-06
 Reference value :  2.00525e-06
 Reference value :  2.00603e-06
 Reference value :  2.00686e-06
 Reference value :  2.00785e-06
 Reference value :  2.00893e-06
 Reference value :  2.00992e-06
 Reference value :  2.01096e-06
 Reference value :  2.01237e-06
 Reference value :  2.01398e-06
 Reference value :  2.01628e-06
 Reference value :  2.01849e-06
 Reference value :  2.02053e-06
 Reference value :  2.02215e-06
 Reference value :  2.02370e-06
 Reference value :  2.02530e-06
 Reference value :  2.02697e-06
 Reference value :  2.02890e-06
 Reference value :  2.03082e-06
 Reference value :  2.03342e-06
 Reference value :  2.03794e-06
 Reference value :  2.04534e-06
 Reference value :  2.05945e-06
 Reference value :  2.07741e-06
 Reference value :  2.10531e-06
 Reference value :  2.14321e-06
 Reference value :  2.20342e-06
 Reference value :  2.25010e-06
 Reference value :  2.25011e-06
 Reference value :  2.25013e-06
 Reference value :  2.25017e-06
 Reference value :  2.25020e-06
 Reference value :  2.25020e-06
 Reference value :  2.25020e-06
 Reference value :  2.25021e-06
 Reference value :  2.25021e-06
 Reference value :  2.25022e-06
 Reference value :  2.25025e-06
 Reference value :  2.25029e-06
 Reference value :  2.25039e-06
 Reference value :  2.25058e-06
 Reference value :  2.25092e-06
 Reference value :  2.25135e-06
 Reference value :  2.25187e-06
 Reference value :  2.25248e-06
 Reference value :  2.25324e-06
 Reference value :  2.25411e-06
 Reference value :  2.25531e-06
 Reference value :  2.25620e-06
 Reference value :  2.25715e-06
 Reference value :  2.25824e-06
 Reference value :  2.25978e-06
 Reference value :  2.26123e-06
 Reference value :  2.26376e-06
 Reference value :  2.26672e-06
 Reference value :  2.27219e-06
 Reference value :  2.27945e-06
 Reference value :  2.28957e-06
 Reference value :  2.29600e-06
 Reference value :  2.30305e-06
 Reference value :  2.31102e-06
 Reference value :  2.31900e-06
 Reference value :  2.32771e-06
 Reference value :  2.33676e-06
 Reference value :  2.35485e-06
 Reference value :  2.37603e-06
 Reference value :  2.41209e-06
 Reference value :  2.46709e-06
 Reference value :  2.50000e-06
 Reference value :  2.50001e-06
 Reference value :  2.50003e-06
 Reference value :  2.50007e-06
 Reference value :  2.50010e-06
 Reference value :  2.50010e-06
 Reference value :  2.50011e-06
 Reference value :  2.50013e-06
 Reference value :  2.50016e-06
 Reference value :  2.50023e-06
 Reference value :  2.50036e-06
 Reference value :  2.50053e-06
 Reference value :  2.50087e-06
 Reference value :  2.50145e-06
 Reference value :  2.50221e-06
 Reference value :  2.50283e-06
 Reference value :  2.50357e-06
 Reference value :  2.50423e-06
 Reference value :  2.50524e-06
 Reference value :  2.50625e-06
 Reference value :  2.50722e-06
 Reference value :  2.50859e-06
 Reference value :  2.51003e-06
 Reference value :  2.51135e-06
 Reference value :  2.51281e-06
 Reference value :  2.51438e-06
 Reference value :  2.51607e-06
 Reference value :  2.51778e-06
 Reference value :  2.52006e-06
 Reference value :  2.52305e-06
 Reference value :  2.52824e-06
 Reference value :  2.53699e-06
 Reference value :  2.55315e-06
 Reference value :  2.58399e-06
 Reference value :  2.64215e-06
 Reference value :  2.70511e-06
 Reference value :  2.75010e-06
 Reference value :  2.75011e-06
 Reference value :  2.75013e-06
 Reference value :  2.75017e-06
 Reference value :  2.75020e-06
 Reference value :  2.75020e-06
 Reference value :  2.75020e-06
 Reference value :  2.75021e-06
 Reference value :  2.75021e-06
 Reference value :  2.75022e-06
 Reference value :  2.75025e-06
 Reference value :  2.75029e-06
 Reference value :  2.75039e-06
 Reference value :  2.75058e-06
 Reference value :  2.75092e-06
 Reference value :  2.75134e-06
 Reference value :  2.75187e-06
 Reference value :  2.75248e-06
 Reference value :  2.75323e-06
 Reference value :  2.75411e-06
 Reference value :  2.75528e-06
 Reference value :  2.75616e-06
 Reference value :  2.75710e-06
 Reference value :  2.75814e-06
 Reference value :  2.75926e-06
 Reference value :  2.76046e-06
 Reference value :  2.76287e-06
 Reference value :  2.76545e-06
 Reference value :  2.76999e-06
 Reference value :  2.77586e-06
 Reference value :  2.78187e-06
 Reference value :  2.79174e-06
 Reference value :  2.80197e-06
 Reference value :  2.82243e-06
 Reference value :  2.84801e-06
 Reference value :  2.87707e-06
 Reference value :  2.90537e-06
 Reference value :  2.94088e-06
 Reference value :  3.00000e-06
 Reference value :  3.00001e-06
 Reference value :  3.00003e-06
 Reference value :  3.00007e-06
 Reference value :  3.00010e-06
 Reference value :  3.00010e-06
 Reference value :  3.00011e-06
 Reference value :  3.00013e-06
 Reference value :  3.00016e-06
 Reference value :  3.00023e-06
 Reference value :  3.00036e-06
 Reference value :  3.00053e-06
 Reference value :  3.00087e-06
 Reference value :  3.00144e-06
 Reference value :  3.00221e-06
 Reference value :  3.00288e-06
 Reference value :  3.00356e-06
 Reference value :  3.00427e-06
 Reference value :  3.00525e-06
 Reference value :  3.00604e-06
 Reference value :  3.00686e-06
 Reference value :  3.00785e-06
 Reference value :  3.00893e-06
 Reference value :  3.01001e-06
 Reference value :  3.01102e-06
 Reference value :  3.01246e-06
 Reference value :  3.01411e-06
 Reference value :  3.01671e-06
 Reference value :  3.01868e-06
 Reference value :  3.02079e-06
 Reference value :  3.02213e-06
 Reference value :  3.02351e-06
 Reference value :  3.02484e-06
 Reference value :  3.02632e-06
 Reference value :  3.02823e-06
 Reference value :  3.02997e-06
 Reference value :  3.03280e-06
 Reference value :  3.03606e-06
 Reference value :  3.03983e-06
 Reference value :  3.04397e-06
 Reference value :  3.04659e-06
 Reference value :  3.05023e-06
 Reference value :  3.05286e-06
 Reference value :  3.05576e-06
 Reference value :  3.05897e-06
 Reference value :  3.06250e-06
 Reference value :  3.06808e-06
 Reference value :  3.07374e-06
 Reference value :  3.07946e-06
 Reference value :  3.08653e-06
 Reference value :  3.09582e-06
 Reference value :  3.11439e-06
 Reference value :  3.14189e-06
 Reference value :  3.19048e-06
 Reference value :  3.25010e-06
 Reference value :  3.25011e-06
 Reference value :  3.25013e-06
 Reference value :  3.25017e-06
 Reference value :  3.25020e-06
 Reference value :  3.25020e-06
 Reference value :  3.25020e-06
 Reference value :  3.25021e-06
 Reference value :  3.25021e-06
 Reference value :  3.25022e-06
 Reference value :  3.25025e-06
 Reference value :  3.25029e-06
 Reference value :  3.25039e-06
 Reference value :  3.25058e-06
 Reference value :  3.25092e-06
 Reference value :  3.25135e-06
 Reference value :  3.25187e-06
 Reference value :  3.25248e-06
 Reference value :  3.25323e-06
 Reference value :  3.25411e-06
 Reference value :  3.25525e-06
 Reference value :  3.25616e-06
 Reference value :  3.25712e-06
 Reference value :  3.25819e-06
 Reference value :  3.25976e-06
 Reference value :  3.26128e-06
 Reference value :  3.26377e-06
 Reference value :  3.26673e-06
 Reference value :  3.27208e-06
 Reference value :  3.28279e-06
 Reference value :  3.30179e-06
 Reference value :  3.33972e-06
 Reference value :  3.41107e-06
 Reference value :  3.50000e-06
 Reference value :  3.50001e-06
 Reference value :  3.50003e-06
 Reference value :  3.50007e-06
 Reference value :  3.50010e-06
 Reference value :  3.50010e-06
 Reference value :  3.50011e-06
 Reference value :  3.50013e-06
 Reference value :  3.50016e-06
 Reference value :  3.50023e-06
 Reference value :  3.50036e-06
 Reference value :  3.50053e-06
 Reference value :  3.50087e-06
 Reference value :  3.50145e-06
 Reference value :  3.50221e-06
 Reference value :  3.50284e-06
 Reference value :  3.50350e-06
 Reference value :  3.50419e-06
 Reference value :  3.50515e-06
 Reference value :  3.50611e-06
 Reference value :  3.50706e-06
 Reference value :  3.50854e-06
 Reference value :  3.50989e-06
 Reference value :  3.51126e-06
 Reference value :  3.51281e-06
 Reference value :  3.51458e-06
 Reference value :  3.51617e-06
 Reference value :  3.51797e-06
 Reference value :  3.51993e-06
 Reference value :  3.52386e-06
 Reference value :  3.53121e-06
 Reference value :  3.54355e-06
 Reference value :  3.56823e-06
 Reference value :  3.61344e-06
 Reference value :  3.70388e-06
 Reference value :  3.75010e-06
 Reference value :  3.75011e-06
 Reference value :  3.75013e-06
 Reference value :  3.75017e-06
 Reference value :  3.75020e-06
 Reference value :  3.75020e-06
 Reference value :  3.75020e-06
 Reference value :  3.75021e-06
 Reference value :  3.75021e-06
 Reference value :  3.75022e-06
 Reference value :  3.75025e-06
 Reference value :  3.75030e-06
 Reference value :  3.75039e-06
 Reference value :  3.75059e-06
 Reference value :  3.75094e-06
 Reference value :  3.75136e-06
 Reference value :  3.75188e-06
 Reference value :  3.75249e-06
 Reference value :  3.75325e-06
 Reference value :  3.75413e-06
 Reference value :  3.75531e-06
 Reference value :  3.75623e-06
 Reference value :  3.75720e-06
 Reference value :  3.75823e-06
 Reference value :  3.75934e-06
 Reference value :  3.76056e-06
 Reference value :  3.76184e-06
 Reference value :  3.76324e-06
 Reference value :  3.76537e-06
 Reference value :  3.76769e-06
 Reference value :  3.77129e-06
 Reference value :  3.77697e-06
 Reference value :  3.78834e-06
 Reference value :  3.81106e-06
 Reference value :  3.85652e-06
 Reference value :  3.94742e-06
 Reference value :  4.00000e-06
 Reference value :  4.00001e-06
 Reference value :  4.00003e-06
 Reference value :  4.00007e-06
 Reference value :  4.00010e-06
 Reference value :  4.00010e-06
 Reference value :  4.00011e-06
 Reference value :  4.00013e-06
 Reference value :  4.00016e-06
 Reference value :  4.00023e-06
 Reference value :  4.00036e-06
 Reference value :  4.00053e-06
 Reference value :  4.00087e-06
 Reference value :  4.00144e-06
 Reference value :  4.00221e-06
 Reference value :  4.00288e-06
 Reference value :  4.00356e-06
 Reference value :  4.00427e-06
 Reference value :  4.00513e-06
 Reference value :  4.00590e-06
 Reference value :  4.00673e-06
 Reference value :  4.00780e-06
 Reference value :  4.00879e-06
 Reference value :  4.00975e-06
 Reference value :  4.01077e-06
 Reference value :  4.01208e-06
 Reference value :  4.01371e-06
 Reference value :  4.01491e-06
 Reference value :  4.01628e-06
 Reference value :  4.01767e-06
 Reference value :  4.01926e-06
 Reference value :  4.02096e-06
 Reference value :  4.02258e-06
 Reference value :  4.02412e-06
 Reference value :  4.02562e-06
 Reference value :  4.02719e-06
 Reference value :  4.02895e-06
 Reference value :  4.03120e-06
 Reference value :  4.03360e-06
 Reference value :  4.03819e-06
 Reference value :  4.04452e-06
 Reference value :  4.05556e-06
 Reference value :  4.06946e-06
 Reference value :  4.08343e-06
 Reference value :  4.09822e-06
 Reference value :  4.11252e-06
 Reference value :  4.12261e-06
 Reference value :  4.13198e-06
 Reference value :  4.13801e-06
 Reference value :  4.14641e-06
 Reference value :  4.16276e-06
 Reference value :  4.18173e-06
 Reference value :  4.21966e-06
 Reference value :  4.25010e-06
 Reference value :  4.25011e-06
 Reference value :  4.25013e-06
 Reference value :  4.25017e-06
 Reference value :  4.25020e-06
 Reference value :  4.25020e-06
 Reference value :  4.25020e-06
 Reference value :  4.25021e-06
 Reference value :  4.25021e-06
 Reference value :  4.25022e-06
 Reference value :  4.25025e-06
 Reference value :  4.25030e-06
 Reference value :  4.25039e-06
 Reference value :  4.25059e-06
 Reference value :  4.25094e-06
 Reference value :  4.25136e-06
 Reference value :  4.25188e-06
 Reference value :  4.25249e-06
 Reference value :  4.25325e-06
 Reference value :  4.25413e-06
 Reference value :  4.25529e-06
 Reference value :  4.25619e-06
 Reference value :  4.25714e-06
 Reference value :  4.25819e-06
 Reference value :  4.25980e-06
 Reference value :  4.26125e-06
 Reference value :  4.26380e-06
 Reference value :  4.26671e-06
 Reference value :  4.27211e-06
 Reference value :  4.28292e-06
 Reference value :  4.30173e-06
 Reference value :  4.33937e-06
 Reference value :  4.41263e-06
 Reference value :  4.50000e-06
 Reference value :  4.50001e-06
 Reference value :  4.50003e-06
 Reference value :  4.50007e-06
 Reference value :  4.50010e-06
 Reference value :  4.50010e-06
 Reference value :  4.50011e-06
 Reference value :  4.50013e-06
 Reference value :  4.50016e-06
 Reference value :  4.50023e-06
 Reference value :  4.50036e-06
 Reference value :  4.50053e-06
 Reference value :  4.50087e-06
 Reference value :  4.50145e-06
 Reference value :  4.50221e-06
 Reference value :  4.50284e-06
 Reference value :  4.50350e-06
 Reference value :  4.50419e-06
 Reference value :  4.50515e-06
 Reference value :  4.50611e-06
 Reference value :  4.50705e-06
 Reference value :  4.50853e-06
 Reference value :  4.50989e-06
 Reference value :  4.51119e-06
 Reference value :  4.51260e-06
 Reference value :  4.51393e-06
 Reference value :  4.51546e-06
 Reference value :  4.51706e-06
 Reference value :  4.51881e-06
 Reference value :  4.52231e-06
 Reference value :  4.52930e-06
 Reference value :  4.54120e-06
 Reference value :  4.56499e-06
 Reference value :  4.60976e-06
 Reference value :  4.69931e-06
 Reference value :  4.75010e-06
 Reference value :  4.75011e-06
 Reference value :  4.75013e-06
 Reference value :  4.75017e-06
 Reference value :  4.75020e-06
 Reference value :  4.75020e-06
 Reference value :  4.75020e-06
 Reference value :  4.75021e-06
 Reference value :  4.75021e-06
 Reference value :  4.75022e-06
 Reference value :  4.75025e-06
 Reference value :  4.75030e-06
 Reference value :  4.75039e-06
 Reference value :  4.75059e-06
 Reference value :  4.75093e-06
 Reference value :  4.75136e-06
 Reference value :  4.75188e-06
 Reference value :  4.75249e-06
 Reference value :  4.75325e-06
 Reference value :  4.75413e-06
 Reference value :  4.75531e-06
 Reference value :  4.75623e-06
 Reference value :  4.75720e-06
 Reference value :  4.75822e-06
 Reference value :  4.75934e-06
 Reference value :  4.76057e-06
 Reference value :  4.76185e-06
 Reference value :  4.76325e-06
 Reference value :  4.76538e-06
 Reference value :  4.76770e-06
 Reference value :  4.77133e-06
 Reference value :  4.77706e-06
 Reference value :  4.78850e-06
 Reference value :  4.81140e-06
 Reference value :  4.85681e-06
 Reference value :  4.94763e-06
 Reference value :  5.00000e-06
 Reference value :  5.00001e-06
 Reference value :  5.00003e-06
 Reference value :  5.00007e-06
 Reference value :  5.00010e-06
 Reference value :  5.00010e-06
 Reference value :  5.00011e-06
 Reference value :  5.00013e-06
 Reference value :  5.00016e-06
 Reference value :  5.00023e-06
 Reference value :  5.00036e-06
 Reference value :  5.00053e-06
 Reference value :  5.00087e-06
 Reference value :  5.00144e-06
 Reference value :  5.00221e-06
 Reference value :  5.00288e-06
 Reference value :  5.00356e-06
 Reference value :  5.00427e-06
 Reference value :  5.00524e-06
 Reference value :  5.00602e-06
 Reference value :  5.00684e-06
 Reference value :  5.00781e-06
 Reference value :  5.00872e-06
 Reference value :  5.00969e-06
 Reference value :  5.01066e-06
 Reference value :  5.01191e-06
 Reference value :  5.01360e-06
 Reference value :  5.01479e-06
 Reference value :  5.01618e-06
 Reference value :  5.01760e-06
 Reference value :  5.01924e-06
 Reference value :  5.02108e-06
 Reference value :  5.02255e-06
 Reference value :  5.02410e-06
 Reference value :  5.02555e-06
 Reference value :  5.02710e-06
 Reference value :  5.02884e-06
 Reference value :  5.03105e-06
 Reference value :  5.03339e-06
 Reference value :  5.03791e-06
 Reference value :  5.04424e-06
 Reference value :  5.05238e-06
 Reference value :  5.05973e-06
 Reference value :  5.06556e-06
 Reference value :  5.07324e-06
 Reference value :  5.08015e-06
 Reference value :  5.08641e-06
 Reference value :  5.09345e-06
 Reference value :  5.10119e-06
 Reference value :  5.10941e-06
 Reference value :  5.12091e-06
 Reference value :  5.14188e-06
 Reference value :  5.16840e-06
 Reference value :  5.18160e-06
 Reference value :  5.19952e-06
 Reference value :  5.21790e-06
 Reference value :  5.24524e-06
 Reference value :  5.25010e-06
 Reference value :  5.25011e-06
 Reference value :  5.25013e-06
 Reference value :  5.25017e-06
 Reference value :  5.25020e-06
 Reference value :  5.25020e-06
 Reference value :  5.25020e-06
 Reference value :  5.25021e-06
 Reference value :  5.25021e-06
 Reference value :  5.25022e-06
 Reference value :  5.25025e-06
 Reference value :  5.25030e-06
 Reference value :  5.25039e-06
 Reference value :  5.25059e-06
 Reference value :  5.25094e-06
 Reference value :  5.25136e-06
 Reference value :  5.25188e-06
 Reference value :  5.25249e-06
 Reference value :  5.25326e-06
 Reference value :  5.25413e-06
 Reference value :  5.25529e-06
 Reference value :  5.25619e-06
 Reference value :  5.25714e-06
 Reference value :  5.25820e-06
 Reference value :  5.25978e-06
 Reference value :  5.26124e-06
 Reference value :  5.26375e-06
 Reference value :  5.26669e-06
 Reference value :  5.27211e-06
 Reference value :  5.28296e-06
 Reference value :  5.30174e-06
 Reference value :  5.33929e-06
 Reference value :  5.41292e-06
 Reference value :  5.50000e-06
 Reference value :  5.50001e-06
 Reference value :  5.50003e-06
 Reference value :  5.50007e-06
 Reference value :  5.50010e-06
 Reference value :  5.50010e-06
 Reference value :  5.50011e-06
 Reference value :  5.50013e-06
 Reference value :  5.50016e-06
 Reference value :  5.50023e-06
 Reference value :  5.50036e-06
 Reference value :  5.50053e-06
 Reference value :  5.50087e-06
 Reference value :  5.50145e-06
 Reference value :  5.50221e-06
 Reference value :  5.50284e-06
 Reference value :  5.50350e-06
 Reference value :  5.50419e-06
 Reference value :  5.50515e-06
 Reference value :  5.50612e-06
 Reference value :  5.50705e-06
 Reference value :  5.50854e-06
 Reference value :  5.50990e-06
 Reference value :  5.51119e-06
 Reference value :  5.51257e-06
 Reference value :  5.51386e-06
 Reference value :  5.51535e-06
 Reference value :  5.51687e-06
 Reference value :  5.51858e-06
 Reference value :  5.52199e-06
 Reference value :  5.52882e-06
 Reference value :  5.54048e-06
 Reference value :  5.56381e-06
 Reference value :  5.60784e-06
 Reference value :  5.69591e-06
 Reference value :  5.75010e-06
 Reference value :  5.75011e-06
 Reference value :  5.75013e-06
 Reference value :  5.75017e-06
 Reference value :  5.75020e-06
 Reference value :  5.75020e-06
 Reference value :  5.75020e-06
 Reference value :  5.75021e-06
 Reference value :  5.75021e-06
 Reference value :  5.75022e-06
 Reference value :  5.75025e-06
 Reference value :  5.75030e-06
 Reference value :  5.75039e-06
 Reference value :  5.75059e-06
 Reference value :  5.75094e-06
 Reference value :  5.75136e-06
 Reference value :  5.75188e-06
 Reference value :  5.75249e-06
 Reference value :  5.75326e-06
 Reference value :  5.75413e-06
 Reference value :  5.75531e-06
 Reference value :  5.75623e-06
 Reference value :  5.75720e-06
 Reference value :  5.75823e-06
 Reference value :  5.75934e-06
 Reference value :  5.76057e-06
 Reference value :  5.76185e-06
 Reference value :  5.76325e-06
 Reference value :  5.76538e-06
 Reference value :  5.76770e-06
 Reference value :  5.77133e-06
 Reference value :  5.77705e-06
 Reference value :  5.78848e-06
 Reference value :  5.81135e-06
 Reference value :  5.85692e-06
 Reference value :  5.94806e-06
 Reference value :  6.00000e-06
 Reference value :  6.00001e-06
 Reference value :  6.00003e-06
 Reference value :  6.00007e-06
 Reference value :  6.00010e-06
 Reference value :  6.00010e-06
 Reference value :  6.00011e-06
 Reference value :  6.00013e-06
 Reference value :  6.00016e-06
 Reference value :  6.00023e-06
 Reference value :  6.00036e-06
 Reference value :  6.00053e-06
 Reference value :  6.00087e-06
 Reference value :  6.00144e-06
 Reference value :  6.00221e-06
 Reference value :  6.00288e-06
 Reference value :  6.00356e-06
 Reference value :  6.00427e-06
 Reference value :  6.00514e-06
 Reference value :  6.00590e-06
 Reference value :  6.00673e-06
 Reference value :  6.00781e-06
 Reference value :  6.00879e-06
 Reference value :  6.00970e-06
 Reference value :  6.01079e-06
 Reference value :  6.01200e-06
 Reference value :  6.01389e-06
 Reference value :  6.01525e-06
 Reference value :  6.01673e-06
 Reference value :  6.01812e-06
 Reference value :  6.01974e-06
 Reference value :  6.02117e-06
 Reference value :  6.02235e-06
 Reference value :  6.02360e-06
 Reference value :  6.02484e-06
 Reference value :  6.02616e-06
 Reference value :  6.02786e-06
 Reference value :  6.02949e-06
 Reference value :  6.03220e-06
 Reference value :  6.03477e-06
 Reference value :  6.03991e-06
 Reference value :  6.04601e-06
 Reference value :  6.05534e-06
 Reference value :  6.06567e-06
 Reference value :  6.07772e-06
 Reference value :  6.09862e-06
 Reference value :  6.12743e-06
 Reference value :  6.17746e-06
 Reference value :  6.23049e-06
 Reference value :  6.25010e-06
 Reference value :  6.25011e-06
 Reference value :  6.25013e-06
 Reference value :  6.25017e-06
 Reference value :  6.25020e-06
 Reference value :  6.25020e-06
 Reference value :  6.25020e-06
 Reference value :  6.25021e-06
 Reference value :  6.25021e-06
 Reference value :  6.25022e-06
 Reference value :  6.25025e-06
 Reference value :  6.25030e-06
 Reference value :  6.25039e-06
 Reference value :  6.25059e-06
 Reference value :  6.25094e-06
 Reference value :  6.25136e-06
 Reference value :  6.25188e-06
 Reference value :  6.25249e-06
 Reference value :  6.25326e-06
 Reference value :  6.25413e-06
 Reference value :  6.25529e-06
 Reference value :  6.25619e-06
 Reference value :  6.25715e-06
 Reference value :  6.25820e-06
 Reference value :  6.25978e-06
 Reference value :  6.26125e-06
 Reference value :  6.26376e-06
 Reference value :  6.26671e-06
 Reference value :  6.27214e-06
 Reference value :  6.28300e-06
 Reference value :  6.30173e-06
 Reference value :  6.33919e-06
 Reference value :  6.41267e-06
 Reference value :  6.50000e-06
 Reference value :  6.50001e-06
 Reference value :  6.50003e-06
 Reference value :  6.50007e-06
 Reference value :  6.50010e-06
 Reference value :  6.50010e-06
 Reference value :  6.50011e-06
 Reference value :  6.50013e-06
 Reference value :  6.50016e-06
 Reference value :  6.50023e-06
 Reference value :  6.50036e-06
 Reference value :  6.50053e-06
 Reference value :  6.50087e-06
 Reference value :  6.50145e-06
 Reference value :  6.50221e-06
 Reference value :  6.50284e-06
 Reference value :  6.50350e-06
 Reference value :  6.50419e-06
 Reference value :  6.50515e-06
 Reference value :  6.50611e-06
 Reference value :  6.50705e-06
 Reference value :  6.50853e-06
 Reference value :  6.50989e-06
 Reference value :  6.51126e-06
 Reference value :  6.51281e-06
 Reference value :  6.51420e-06
 Reference value :  6.51571e-06
 Reference value :  6.51723e-06
 Reference value :  6.51901e-06
 Reference value :  6.52256e-06
 Reference value :  6.52843e-06
 Reference value :  6.54016e-06
 Reference value :  6.56231e-06
 Reference value :  6.60336e-06
 Reference value :  6.68546e-06
 Reference value :  6.75010e-06
 Reference value :  6.75011e-06
 Reference value :  6.75013e-06
 Reference value :  6.75017e-06
 Reference value :  6.75020e-06
 Reference value :  6.75020e-06
 Reference value :  6.75020e-06
 Reference value :  6.75021e-06
 Reference value :  6.75021e-06
 Reference value :  6.75022e-06
 Reference value :  6.75025e-06
 Reference value :  6.75030e-06
 Reference value :  6.75039e-06
 Reference value :  6.75059e-06
 Reference value :  6.75094e-06
 Reference value :  6.75136e-06
 Reference value :  6.75188e-06
 Reference value :  6.75249e-06
 Reference value :  6.75326e-06
 Reference value :  6.75413e-06
 Reference value :  6.75531e-06
 Reference value :  6.75623e-06
 Reference value :  6.75720e-06
 Reference value :  6.75823e-06
 Reference value :  6.75934e-06
 Reference value :  6.76058e-06
 Reference value :  6.76186e-06
 Reference value :  6.76326e-06
 Reference value :  6.76539e-06
 Reference value :  6.76771e-06
 Reference value :  6.77136e-06
 Reference value :  6.77711e-06
 Reference value :  6.78862e-06
 Reference value :  6.81162e-06
 Reference value :  6.85652e-06
 Reference value :  6.94633e-06
 Reference value :  7.00000e-06
 Reference value :  7.00001e-06
 Reference value :  7.00003e-06
 Reference value :  7.00007e-06
 Reference value :  7.00010e-06
 Reference value :  7.00010e-06
 Reference value :  7.00011e-06
 Reference value :  7.00013e-06
 Reference value :  7.00016e-06
 Reference value :  7.00023e-06
 Reference value :  7.00036e-06
 Reference value :  7.00053e-06
 Reference value :  7.00087e-06
 Reference value :  7.00144e-06
 Reference value :  7.00221e-06
 Reference value :  7.00288e-06
 Reference value :  7.00356e-06
 Reference value :  7.00427e-06
 Reference value :  7.00513e-06
 Reference value :  7.00590e-06
 Reference value :  7.00672e-06
 Reference value :  7.00780e-06
 Reference value :  7.00878e-06
 Reference value :  7.00974e-06
 Reference value :  7.01079e-06
 Reference value :  7.01204e-06
 Reference value :  7.01385e-06
 Reference value :  7.01516e-06
 Reference value :  7.01664e-06
 Reference value :  7.01808e-06
 Reference value :  7.01975e-06
 Reference value :  7.02134e-06
 Reference value :  7.02246e-06
 Reference value :  7.02360e-06
 Reference value :  7.02488e-06
 Reference value :  7.02616e-06
 Reference value :  7.02768e-06
 Reference value :  7.02913e-06
 Reference value :  7.03125e-06
 Reference value :  7.03357e-06
 Reference value :  7.03819e-06
 Reference value :  7.04477e-06
 Reference value :  7.05243e-06
 Reference value :  7.06369e-06
 Reference value :  7.08155e-06
 Reference value :  7.11504e-06
 Reference value :  7.17635e-06
 Reference value :  7.25010e-06
 Reference value :  7.25011e-06
 Reference value :  7.25013e-06
 Reference value :  7.25017e-06
 Reference value :  7.25020e-06
 Reference value :  7.25020e-06
 Reference value :  7.25020e-06
 Reference value :  7.25021e-06
 Reference value :  7.25021e-06
 Reference value :  7.25022e-06
 Reference value :  7.25025e-06
 Reference value :  7.25030e-06
 Reference value :  7.25039e-06
 Reference value :  7.25059e-06
 Reference value :  7.25094e-06
 Reference value :  7.25136e-06
 Reference value :  7.25188e-06
 Reference value :  7.25249e-06
 Reference value :  7.25326e-06
 Reference value :  7.25414e-06
 Reference value :  7.25529e-06
 Reference value :  7.25622e-06
 Reference value :  7.25719e-06
 Reference value :  7.25827e-06
 Reference value :  7.25984e-06
 Reference value :  7.26140e-06
 Reference value :  7.26383e-06
 Reference value :  7.26694e-06
 Reference value :  7.27244e-06
 Reference value :  7.28343e-06
 Reference value :  7.30230e-06
 Reference value :  7.33967e-06
 Reference value :  7.40988e-06
 Reference value :  7.50000e-06
 Reference value :  7.50001e-06
 Reference value :  7.50003e-06
 Reference value :  7.50007e-06
 Reference value :  7.50010e-06
 Reference value :  7.50010e-06
 Reference value :  7.50011e-06
 Reference value :  7.50013e-06
 Reference value :  7.50016e-06
 Reference value :  7.50023e-06
 Reference value :  7.50036e-06
 Reference value :  7.50053e-06
 Reference value :  7.50087e-06
 Reference value :  7.50150e-06
 Reference value :  7.50218e-06
 Reference value :  7.50276e-06
 Reference value :  7.50340e-06
 Reference value :  7.50407e-06
 Reference value :  7.50502e-06
 Reference value :  7.50592e-06
 Reference value :  7.50687e-06
 Reference value :  7.50815e-06
 Reference value :  7.50958e-06
 Reference value :  7.51109e-06
 Reference value :  7.51247e-06
 Reference value :  7.51391e-06
 Reference value :  7.51552e-06
 Reference value :  7.51716e-06
 Reference value :  7.51925e-06
 Reference value :  7.52228e-06
 Reference value :  7.52747e-06
 Reference value :  7.53681e-06
 Reference value :  7.55340e-06
 Reference value :  7.58423e-06
 Reference value :  7.64132e-06
 Reference value :  7.74510e-06
 Reference value :  7.75010e-06
 Reference value :  7.75011e-06
 Reference value :  7.75013e-06
 Reference value :  7.75017e-06
 Reference value :  7.75020e-06
 Reference value :  7.75020e-06
 Reference value :  7.75020e-06
 Reference value :  7.75021e-06
 Reference value :  7.75021e-06
 Reference value :  7.75022e-06
 Reference value :  7.75025e-06
 Reference value :  7.75029e-06
 Reference value :  7.75039e-06
 Reference value :  7.75058e-06
 Reference value :  7.75092e-06
 Reference value :  7.75135e-06
 Reference value :  7.75187e-06
 Reference value :  7.75248e-06
 Reference value :  7.75324e-06
 Reference value :  7.75412e-06
 Reference value :  7.75529e-06
 Reference value :  7.75622e-06
 Reference value :  7.75719e-06
 Reference value :  7.75821e-06
 Reference value :  7.75933e-06
 Reference value :  7.76057e-06
 Reference value :  7.76185e-06
 Reference value :  7.76325e-06
 Reference value :  7.76539e-06
 Reference value :  7.76769e-06
 Reference value :  7.77139e-06
 Reference value :  7.77719e-06
 Reference value :  7.78879e-06
 Reference value :  7.81199e-06
 Reference value :  7.85489e-06
 Reference value :  7.94070e-06
 Reference value :  8.00000e-06
 Reference value :  8.00001e-06
 Reference value :  8.00003e-06
 Reference value :  8.00007e-06
 Reference value :  8.00010e-06
 Reference value :  8.00010e-06
 Reference value :  8.00011e-06
 Reference value :  8.00013e-06
 Reference value :  8.00016e-06
 Reference value :  8.00023e-06
 Reference value :  8.00036e-06
 Reference value :  8.00053e-06
 Reference value :  8.00087e-06
 Reference value :  8.00149e-06
 Reference value :  8.00218e-06
 Reference value :  8.00280e-06
 Reference value :  8.00345e-06
 Reference value :  8.00414e-06
 Reference value :  8.00497e-06
 Reference value :  8.00584e-06
 Reference value :  8.00671e-06
 Reference value :  8.00765e-06
 Reference value :  8.00876e-06
 Reference value :  8.00976e-06
 Reference value :  8.01079e-06
 Reference value :  8.01217e-06
 Reference value :  8.01383e-06
 Reference value :  8.01514e-06
 Reference value :  8.01663e-06
 Reference value :  8.01821e-06
 Reference value :  8.01994e-06
 Reference value :  8.02202e-06
 Reference value :  8.02418e-06
 Reference value :  8.02700e-06
 Reference value :  8.02994e-06
 Reference value :  8.03508e-06
 Reference value :  8.04369e-06
 Reference value :  8.05264e-06
 Reference value :  8.06343e-06
 Reference value :  8.07346e-06
 Reference value :  8.08316e-06
 Reference value :  8.09244e-06
 Reference value :  8.10185e-06
 Reference value :  8.11156e-06
 Reference value :  8.13098e-06
 Reference value :  8.14967e-06
 Reference value :  8.17402e-06
 Reference value :  8.19910e-06
 Reference value :  8.24925e-06
 Reference value :  8.25010e-06
 Reference value :  8.25011e-06
 Reference value :  8.25013e-06
 Reference value :  8.25017e-06
 Reference value :  8.25020e-06
 Reference value :  8.25020e-06
 Reference value :  8.25020e-06
 Reference value :  8.25021e-06
 Reference value :  8.25021e-06
 Reference value :  8.25022e-06
 Reference value :  8.25025e-06
 Reference value :  8.25030e-06
 Reference value :  8.25039e-06
 Reference value :  8.25059e-06
 Reference value :  8.25098e-06
 Reference value :  8.25139e-06
 Reference value :  8.25189e-06
 Reference value :  8.25250e-06
 Reference value :  8.25330e-06
 Reference value :  8.25418e-06
 Reference value :  8.25526e-06
 Reference value :  8.25645e-06
 Reference value :  8.25784e-06
 Reference value :  8.25942e-06
 Reference value :  8.26126e-06
 Reference value :  8.26400e-06
 Reference value :  8.26675e-06
 Reference value :  8.27190e-06
 Reference value :  8.28222e-06
 Reference value :  8.29891e-06
 Reference value :  8.33221e-06
 Reference value :  8.39054e-06
 Reference value :  8.50000e-06
 Reference value :  8.50000e-06
 Reference value :  8.50000e-06
 Reference value :  8.50000e-06
 Reference value :  8.50000e-06
 Reference value :  8.50000e-06
 Reference value :  8.50000e-06
 Reference value :  8.50000e-06
 Reference value :  8.50000e-06
 Reference value :  8.50000e-06
 Reference value :  8.50001e-06
 Reference value :  8.50001e-06
 Reference value :  8.50002e-06
 Reference value :  8.50004e-06
 Reference value :  8.50008e-06
 Reference value :  8.50010e-06
 Reference value :  8.50010e-06
 Reference value :  8.50011e-06
 Reference value :  8.50012e-06
 Reference value :  8.50014e-06
 Reference value :  8.50018e-06
 Reference value :  8.50026e-06
 Reference value :  8.50043e-06
 Reference value :  8.50077e-06
 Reference value :  8.50124e-06
 Reference value :  8.50211e-06
 Reference value :  8.50295e-06
 Reference value :  8.50360e-06
 Reference value :  8.50441e-06
 Reference value :  8.50523e-06
 Reference value :  8.50622e-06
 Reference value :  8.50737e-06
 Reference value :  8.50865e-06
 Reference value :  8.51072e-06
 Reference value :  8.51234e-06
 Reference value :  8.51406e-06
 Reference value :  8.51588e-06
 Reference value :  8.51780e-06
 Reference value :  8.52005e-06
 Reference value :  8.52272e-06
 Reference value :  8.52753e-06
 Reference value :  8.53285e-06
 Reference value :  8.53669e-06
 Reference value :  8.53985e-06
 Reference value :  8.54282e-06
 Reference value :  8.54562e-06
 Reference value :  8.54803e-06
 Reference value :  8.55045e-06
 Reference value :  8.55276e-06
 Reference value :  8.55515e-06
 Reference value :  8.55864e-06
 Reference value :  8.56194e-06
 Reference value :  8.56521e-06
 Reference value :  8.56691e-06
 Reference value :  8.56867e-06
 Reference value :  8.57073e-06
 Reference value :  8.57360e-06
 Reference value :  8.57762e-06
 Reference value :  8.58172e-06
 Reference value :  8.58930e-06
 Reference value :  8.59625e-06
 Reference value :  8.61014e-06
 Reference value :  8.63462e-06
 Reference value :  8.66710e-06
 Reference value :  8.68763e-06
 Reference value :  8.71297e-06
 Reference value :  8.74072e-06
 Reference value :  8.75010e-06
 Reference value :  8.75011e-06
 Reference value :  8.75013e-06
 Reference value :  8.75017e-06
 Reference value :  8.75020e-06
 Reference value :  8.75020e-06
 Reference value :  8.75020e-06
 Reference value :  8.75021e-06
 Reference value :  8.75021e-06
 Reference value :  8.75022e-06
 Reference value :  8.75025e-06
 Reference value :  8.75030e-06
 Reference value :  8.75039e-06
 Reference value :  8.75058e-06
 Reference value :  8.75096e-06
 Reference value :  8.75137e-06
 Reference value :  8.75190e-06
 Reference value :  8.75251e-06
 Reference value :  8.75330e-06
 Reference value :  8.75419e-06
 Reference value :  8.75539e-06
 Reference value :  8.75635e-06
 Reference value :  8.75736e-06
 Reference value :  8.75850e-06
 Reference value :  8.76004e-06
 Reference value :  8.76174e-06
 Reference value :  8.76408e-06
 Reference value :  8.76759e-06
 Reference value :  8.77374e-06
 Reference value :  8.78600e-06
 Reference value :  8.80627e-06
 Reference value :  8.84617e-06
 Reference value :  8.91764e-06
 Reference value :  8.99062e-06
 Reference value :  9.00000e-06
 Reference value :  9.00001e-06
 Reference value :  9.00003e-06
 Reference value :  9.00007e-06
 Reference value :  9.00010e-06
 Reference value :  9.00010e-06
 Reference value :  9.00011e-06
 Reference value :  9.00013e-06
 Reference value :  9.00016e-06
 Reference value :  9.00023e-06
 Reference value :  9.00036e-06
 Reference value :  9.00054e-06
 Reference value :  9.00089e-06
 Reference value :  9.00151e-06
 Reference value :  9.00219e-06
 Reference value :  9.00282e-06
 Reference value :  9.00350e-06
 Reference value :  9.00421e-06
 Reference value :  9.00517e-06
 Reference value :  9.00612e-06
 Reference value :  9.00710e-06
 Reference value :  9.00843e-06
 Reference value :  9.00982e-06
 Reference value :  9.01173e-06
 Reference value :  9.01406e-06
 Reference value :  9.01590e-06
 Reference value :  9.01788e-06
 Reference value :  9.01995e-06
 Reference value :  9.02226e-06
 Reference value :  9.02485e-06
 Reference value :  9.02755e-06
 Reference value :  9.03256e-06
 Reference value :  9.04088e-06
 Reference value :  9.05044e-06
 Reference value :  9.06957e-06
 Reference value :  9.10783e-06
 Reference value :  9.14066e-06
 Reference value :  9.16262e-06
 Reference value :  9.17816e-06
 Reference value :  9.18705e-06
 Reference value :  9.19376e-06
 Reference value :  9.20146e-06
 Reference value :  9.20925e-06
 Reference value :  9.22084e-06
 Reference value :  9.23995e-06
 Reference value :  9.25010e-06
 Reference value :  9.25011e-06
 Reference value :  9.25013e-06
 Reference value :  9.25017e-06
 Reference value :  9.25020e-06
 Reference value :  9.25020e-06
 Reference value :  9.25020e-06
 Reference value :  9.25021e-06
 Reference value :  9.25021e-06
 Reference value :  9.25022e-06
 Reference value :  9.25025e-06
 Reference value :  9.25030e-06
 Reference value :  9.25039e-06
 Reference value :  9.25059e-06
 Reference value :  9.25098e-06
 Reference value :  9.25139e-06
 Reference value :  9.25191e-06
 Reference value :  9.25252e-06
 Reference value :  9.25332e-06
 Reference value :  9.25423e-06
 Reference value :  9.25541e-06
 Reference value :  9.25639e-06
 Reference value :  9.25740e-06
 Reference value :  9.25842e-06
 Reference value :  9.25955e-06
 Reference value :  9.26079e-06
 Reference value :  9.26216e-06
 Reference value :  9.26354e-06
 Reference value :  9.26566e-06
 Reference value :  9.26797e-06
 Reference value :  9.27171e-06
 Reference value :  9.27764e-06
 Reference value :  9.28949e-06
 Reference value :  9.31321e-06
 Reference value :  9.36064e-06
 Reference value :  9.45551e-06
 Reference value :  9.50000e-06
 Reference value :  9.50001e-06
 Reference value :  9.50003e-06
 Reference value :  9.50007e-06
 Reference value :  9.50010e-06
 Reference value :  9.50010e-06
 Reference value :  9.50011e-06
 Reference value :  9.50013e-06
 Reference value :  9.50016e-06
 Reference value :  9.50023e-06
 Reference value :  9.50036e-06
 Reference value :  9.50054e-06
 Reference value :  9.50089e-06
 Reference value :  9.50150e-06
 Reference value :  9.50219e-06
 Reference value :  9.50282e-06
 Reference value :  9.50346e-06
 Reference value :  9.50415e-06
 Reference value :  9.50499e-06
 Reference value :  9.50589e-06
 Reference value :  9.50677e-06
 Reference value :  9.50766e-06
 Reference value :  9.50866e-06
 Reference value :  9.50969e-06
 Reference value :  9.51063e-06
 Reference value :  9.51208e-06
 Reference value :  9.51359e-06
 Reference value :  9.51595e-06
 Reference value :  9.51768e-06
 Reference value :  9.51951e-06
 Reference value :  9.52123e-06
 Reference value :  9.52269e-06
 Reference value :  9.52415e-06
 Reference value :  9.52559e-06
 Reference value :  9.52708e-06
 Reference value :  9.52876e-06
 Reference value :  9.53093e-06
 Reference value :  9.53320e-06
 Reference value :  9.53754e-06
 Reference value :  9.54382e-06
 Reference value :  9.55461e-06
 Reference value :  9.57345e-06
 Reference value :  9.60422e-06
 Reference value :  9.63674e-06
 Reference value :  9.66768e-06
 Reference value :  9.68865e-06
 Reference value :  9.70881e-06
 Reference value :  9.73098e-06
 Reference value :  9.75010e-06
 Reference value :  9.75011e-06
 Reference value :  9.75013e-06
 Reference value :  9.75017e-06
 Reference value :  9.75020e-06
 Reference value :  9.75020e-06
 Reference value :  9.75020e-06
 Reference value :  9.75021e-06
 Reference value :  9.75021e-06
 Reference value :  9.75022e-06
 Reference value :  9.75025e-06
 Reference value :  9.75029e-06
 Reference value :  9.75039e-06
 Reference value :  9.75058e-06
 Reference value :  9.75092e-06
 Reference value :  9.75135e-06
 Reference value :  9.75187e-06
 Reference value :  9.75248e-06
 Reference value :  9.75324e-06
 Reference value :  9.75411e-06
 Reference value :  9.75531e-06
 Reference value :  9.75620e-06
 Reference value :  9.75715e-06
 Reference value :  9.75821e-06
 Reference value :  9.75978e-06
 Reference value :  9.76119e-06
 Reference value :  9.76374e-06
 Reference value :  9.76665e-06
 Reference value :  9.77213e-06
 Reference value :  9.78309e-06
 Reference value :  9.80202e-06
 Reference value :  9.83989e-06
 Reference value :  9.91241e-06
 Reference value :  9.98918e-06
 Reference value :  1.00000e-05
 Reference value :  1.00000e-05
 Reference value :  1.00000e-05
 Reference value :  1.00001e-05
 Reference value :  1.00001e-05
 Reference value :  1.00001e-05
 Reference value :  1.00001e-05
 Reference value :  1.00001e-05
 Reference value :  1.00002e-05
 Reference value :  1.00002e-05
 Reference value :  1.00004e-05
 Reference value :  1.00005e-05
 Reference value :  1.00009e-05
 Reference value :  1.00014e-05
 Reference value :  1.00022e-05
 Reference value :  1.00029e-05
 Reference value :  1.00036e-05
 Reference value :  1.00043e-05
 Reference value :  1.00052e-05
 Reference value :  1.00062e-05
 Reference value :  1.00072e-05
 Reference value :  1.00086e-05
 Reference value :  1.00100e-05
 Reference value :  1.00113e-05
 Reference value :  1.00127e-05
 Reference value :  1.00142e-05
 Reference value :  1.00159e-05
 Reference value :  1.00175e-05
 Reference value :  1.00195e-05
 Reference value :  1.00217e-05
 Reference value :  1.00255e-05
 Reference value :  1.00312e-05
 Reference value :  1.00412e-05
 Reference value :  1.00596e-05
 Reference value :  1.00918e-05
 Reference value :  1.01529e-05
 Reference value :  1.02501e-05
 Reference value :  1.02501e-05
 Reference value :  1.02501e-05
 Reference value :  1.02502e-05
 Reference value :  1.02502e-05
 Reference value :  1.02502e-05
 Reference value :  1.02502e-05
 Reference value :  1.02502e-05
 Reference value :  1.02502e-05
 Reference value :  1.02502e-05
 Reference value :  1.02502e-05
 Reference value :  1.02503e-05
 Reference value :  1.02504e-05
 Reference value :  1.02506e-05
 Reference value :  1.02509e-05
 Reference value :  1.02513e-05
 Reference value :  1.02519e-05
 Reference value :  1.02525e-05
 Reference value :  1.02532e-05
 Reference value :  1.02541e-05
 Reference value :  1.02553e-05
 Reference value :  1.02562e-05
 Reference value :  1.02571e-05
 Reference value :  1.02582e-05
 Reference value :  1.02593e-05
 Reference value :  1.02605e-05
 Reference value :  1.02630e-05
 Reference value :  1.02656e-05
 Reference value :  1.02702e-05
 Reference value :  1.02786e-05
 Reference value :  1.02952e-05
 Reference value :  1.03285e-05
 Reference value :  1.03934e-05
 Reference value :  1.05000e-05
 Reference value :  1.05000e-05
 Reference value :  1.05000e-05
 Reference value :  1.05001e-05
 Reference value :  1.05001e-05
 Reference value :  1.05001e-05
 Reference value :  1.05001e-05
 Reference value :  1.05001e-05
 Reference value :  1.05002e-05
 Reference value :  1.05002e-05
 Reference value :  1.05004e-05
 Reference value :  1.05005e-05
 Reference value :  1.05009e-05
 Reference value :  1.05014e-05
 Reference value :  1.05022e-05
 Reference value :  1.05029e-05
 Reference value :  1.05036e-05
 Reference value :  1.05043e-05
 Reference value :  1.05053e-05
 Reference value :  1.05060e-05
 Reference value :  1.05069e-05
 Reference value :  1.05079e-05
 Reference value :  1.05089e-05
 Reference value :  1.05099e-05
 Reference value :  1.05110e-05
 Reference value :  1.05124e-05
 Reference value :  1.05140e-05
 Reference value :  1.05163e-05
 Reference value :  1.05185e-05
 Reference value :  1.05205e-05
 Reference value :  1.05222e-05
 Reference value :  1.05237e-05
 Reference value :  1.05253e-05
 Reference value :  1.05270e-05
 Reference value :  1.05290e-05
 Reference value :  1.05309e-05
 Reference value :  1.05335e-05
 Reference value :  1.05381e-05
 Reference value :  1.05455e-05
 Reference value :  1.05598e-05
 Reference value :  1.05778e-05
 Reference value :  1.06058e-05
 Reference value :  1.06439e-05
 Reference value :  1.07042e-05
 Reference value :  1.07501e-05
 Reference value :  1.07501e-05
 Reference value :  1.07501e-05
 Reference value :  1.07502e-05
 Reference value :  1.07502e-05
 Reference value :  1.07502e-05
 Reference value :  1.07502e-05
 Reference value :  1.07502e-05
 Reference value :  1.07502e-05
 Reference value :  1.07502e-05
 Reference value :  1.07502e-05
 Reference value :  1.07503e-05
 Reference value :  1.07504e-05
 Reference value :  1.07506e-05
 Reference value :  1.07509e-05
 Reference value :  1.07513e-05
 Reference value :  1.07519e-05
 Reference value :  1.07525e-05
 Reference value :  1.07532e-05
 Reference value :  1.07541e-05
 Reference value :  1.07553e-05
 Reference value :  1.07562e-05
 Reference value :  1.07571e-05
 Reference value :  1.07582e-05
 Reference value :  1.07598e-05
 Reference value :  1.07612e-05
 Reference value :  1.07638e-05
 Reference value :  1.07667e-05
 Reference value :  1.07722e-05
 Reference value :  1.07831e-05
 Reference value :  1.07940e-05
 Reference value :  1.08021e-05
 Reference value :  1.08099e-05
 Reference value :  1.08192e-05
 Reference value :  1.08291e-05
 Reference value :  1.08386e-05
 Reference value :  1.08499e-05
 Reference value :  1.08613e-05
 Reference value :  1.08828e-05
 Reference value :  1.09080e-05
 Reference value :  1.09503e-05
 Reference value :  1.10000e-05
 Reference value :  1.10000e-05
 Reference value :  1.10000e-05
 Reference value :  1.10001e-05
 Reference value :  1.10001e-05
 Reference value :  1.10001e-05
 Reference value :  1.10001e-05
 Reference value :  1.10001e-05
 Reference value :  1.10002e-05
 Reference value :  1.10002e-05
 Reference value :  1.10004e-05
 Reference value :  1.10005e-05
 Reference value :  1.10009e-05
 Reference value :  1.10014e-05
 Reference value :  1.10022e-05
 Reference value :  1.10028e-05
 Reference value :  1.10036e-05
 Reference value :  1.10042e-05
 Reference value :  1.10052e-05
 Reference value :  1.10062e-05
 Reference value :  1.10072e-05
 Reference value :  1.10086e-05
 Reference value :  1.10100e-05
 Reference value :  1.10113e-05
 Reference value :  1.10128e-05
 Reference value :  1.10144e-05
 Reference value :  1.10161e-05
 Reference value :  1.10178e-05
 Reference value :  1.10201e-05
 Reference value :  1.10230e-05
 Reference value :  1.10282e-05
 Reference value :  1.10368e-05
 Reference value :  1.10527e-05
 Reference value :  1.10829e-05
 Reference value :  1.11119e-05
 Reference value :  1.11437e-05
 Reference value :  1.11737e-05
 Reference value :  1.12028e-05
 Reference value :  1.12268e-05
 Reference value :  1.12501e-05
 Reference value :  1.12501e-05
 Reference value :  1.12501e-05
 Reference value :  1.12502e-05
 Reference value :  1.12502e-05
 Reference value :  1.12502e-05
 Reference value :  1.12502e-05
 Reference value :  1.12502e-05
 Reference value :  1.12502e-05
 Reference value :  1.12502e-05
 Reference value :  1.12502e-05
 Reference value :  1.12503e-05
 Reference value :  1.12504e-05
 Reference value :  1.12506e-05
 Reference value :  1.12509e-05
 Reference value :  1.12514e-05
 Reference value :  1.12519e-05
 Reference value :  1.12525e-05
 Reference value :  1.12533e-05
 Reference value :  1.12541e-05
 Reference value :  1.12553e-05
 Reference value :  1.12562e-05
 Reference value :  1.12572e-05
 Reference value :  1.12582e-05
 Reference value :  1.12593e-05
 Reference value :  1.12605e-05
 Reference value :  1.12630e-05
 Reference value :  1.12656e-05
 Reference value :  1.12703e-05
 Reference value :  1.12787e-05
 Reference value :  1.12955e-05
 Reference value :  1.13285e-05
 Reference value :  1.13944e-05
 Reference value :  1.15000e-05
 Reference value :  1.15000e-05
 Reference value :  1.15000e-05
 Reference value :  1.15001e-05
 Reference value :  1.15001e-05
 Reference value :  1.15001e-05
 Reference value :  1.15001e-05
 Reference value :  1.15001e-05
 Reference value :  1.15002e-05
 Reference value :  1.15002e-05
 Reference value :  1.15004e-05
 Reference value :  1.15005e-05
 Reference value :  1.15009e-05
 Reference value :  1.15014e-05
 Reference value :  1.15022e-05
 Reference value :  1.15029e-05
 Reference value :  1.15036e-05
 Reference value :  1.15043e-05
 Reference value :  1.15052e-05
 Reference value :  1.15060e-05
 Reference value :  1.15069e-05
 Reference value :  1.15078e-05
 Reference value :  1.15089e-05
 Reference value :  1.15100e-05
 Reference value :  1.15110e-05
 Reference value :  1.15125e-05
 Reference value :  1.15141e-05
 Reference value :  1.15167e-05
 Reference value :  1.15187e-05
 Reference value :  1.15208e-05
 Reference value :  1.15221e-05
 Reference value :  1.15235e-05
 Reference value :  1.15248e-05
 Reference value :  1.15263e-05
 Reference value :  1.15281e-05
 Reference value :  1.15299e-05
 Reference value :  1.15326e-05
 Reference value :  1.15357e-05
 Reference value :  1.15401e-05
 Reference value :  1.15442e-05
 Reference value :  1.15484e-05
 Reference value :  1.15512e-05
 Reference value :  1.15545e-05
 Reference value :  1.15577e-05
 Reference value :  1.15610e-05
 Reference value :  1.15649e-05
 Reference value :  1.15718e-05
 Reference value :  1.15785e-05
 Reference value :  1.15847e-05
 Reference value :  1.15923e-05
 Reference value :  1.16030e-05
 Reference value :  1.16219e-05
 Reference value :  1.16598e-05
 Reference value :  1.17097e-05
 Reference value :  1.17501e-05
 Reference value :  1.17501e-05
 Reference value :  1.17501e-05
 Reference value :  1.17502e-05
 Reference value :  1.17502e-05
 Reference value :  1.17502e-05
 Reference value :  1.17502e-05
 Reference value :  1.17502e-05
 Reference value :  1.17502e-05
 Reference value :  1.17502e-05
 Reference value :  1.17502e-05
 Reference value :  1.17503e-05
 Reference value :  1.17504e-05
 Reference value :  1.17506e-05
 Reference value :  1.17509e-05
 Reference value :  1.17513e-05
 Reference value :  1.17519e-05
 Reference value :  1.17525e-05
 Reference value :  1.17532e-05
 Reference value :  1.17541e-05
 Reference value :  1.17552e-05
 Reference value :  1.17562e-05
 Reference value :  1.17571e-05
 Reference value :  1.17582e-05
 Reference value :  1.17598e-05
 Reference value :  1.17613e-05
 Reference value :  1.17638e-05
 Reference value :  1.17667e-05
 Reference value :  1.17721e-05
 Reference value :  1.17828e-05
 Reference value :  1.18015e-05
 Reference value :  1.18388e-05
 Reference value :  1.19094e-05
 Reference value :  1.20000e-05
 Reference value :  1.20000e-05
 Reference value :  1.20000e-05
 Reference value :  1.20001e-05
 Reference value :  1.20001e-05
 Reference value :  1.20001e-05
 Reference value :  1.20001e-05
 Reference value :  1.20001e-05
 Reference value :  1.20002e-05
 Reference value :  1.20002e-05
 Reference value :  1.20004e-05
 Reference value :  1.20005e-05
 Reference value :  1.20009e-05
 Reference value :  1.20014e-05
 Reference value :  1.20022e-05
 Reference value :  1.20028e-05
 Reference value :  1.20035e-05
 Reference value :  1.20042e-05
 Reference value :  1.20051e-05
 Reference value :  1.20061e-05
 Reference value :  1.20071e-05
 Reference value :  1.20085e-05
 Reference value :  1.20099e-05
 Reference value :  1.20113e-05
 Reference value :  1.20128e-05
 Reference value :  1.20146e-05
 Reference value :  1.20162e-05
 Reference value :  1.20180e-05
 Reference value :  1.20199e-05
 Reference value :  1.20239e-05
 Reference value :  1.20312e-05
 Reference value :  1.20435e-05
 Reference value :  1.20682e-05
 Reference value :  1.21134e-05
 Reference value :  1.22037e-05
 Reference value :  1.22501e-05
 Reference value :  1.22501e-05
 Reference value :  1.22501e-05
 Reference value :  1.22502e-05
 Reference value :  1.22502e-05
 Reference value :  1.22502e-05
 Reference value :  1.22502e-05
 Reference value :  1.22502e-05
 Reference value :  1.22502e-05
 Reference value :  1.22502e-05
 Reference value :  1.22502e-05
 Reference value :  1.22503e-05
 Reference value :  1.22504e-05
 Reference value :  1.22506e-05
 Reference value :  1.22509e-05
 Reference value :  1.22514e-05
 Reference value :  1.22519e-05
 Reference value :  1.22525e-05
 Reference value :  1.22533e-05
 Reference value :  1.22541e-05
 Reference value :  1.22553e-05
 Reference value :  1.22562e-05
 Reference value :  1.22572e-05
 Reference value :  1.22582e-05
 Reference value :  1.22593e-05
 Reference value :  1.22606e-05
 Reference value :  1.22618e-05
 Reference value :  1.22632e-05
 Reference value :  1.22654e-05
 Reference value :  1.22677e-05
 Reference value :  1.22713e-05
 Reference value :  1.22770e-05
 Reference value :  1.22883e-05
 Reference value :  1.23110e-05
 Reference value :  1.23565e-05
 Reference value :  1.24474e-05
 Reference value :  1.25000e-05
 Reference value :  1.25000e-05
 Reference value :  1.25000e-05
 Reference value :  1.25001e-05
 Reference value :  1.25001e-05
 Reference value :  1.25001e-05
 Reference value :  1.25001e-05
 Reference value :  1.25001e-05
 Reference value :  1.25002e-05
 Reference value :  1.25002e-05
 Reference value :  1.25004e-05
 Reference value :  1.25005e-05
 Reference value :  1.25009e-05
 Reference value :  1.25014e-05
 Reference value :  1.25022e-05
 Reference value :  1.25029e-05
 Reference value :  1.25036e-05
 Reference value :  1.25043e-05
 Reference value :  1.25051e-05
 Reference value :  1.25059e-05
 Reference value :  1.25067e-05
 Reference value :  1.25078e-05
 Reference value :  1.25088e-05
 Reference value :  1.25097e-05
 Reference value :  1.25108e-05
 Reference value :  1.25121e-05
 Reference value :  1.25137e-05
 Reference value :  1.25149e-05
 Reference value :  1.25163e-05
 Reference value :  1.25177e-05
 Reference value :  1.25193e-05
 Reference value :  1.25209e-05
 Reference value :  1.25226e-05
 Reference value :  1.25241e-05
 Reference value :  1.25256e-05
 Reference value :  1.25272e-05
 Reference value :  1.25289e-05
 Reference value :  1.25312e-05
 Reference value :  1.25336e-05
 Reference value :  1.25381e-05
 Reference value :  1.25443e-05
 Reference value :  1.25550e-05
 Reference value :  1.25688e-05
 Reference value :  1.25848e-05
 Reference value :  1.25993e-05
 Reference value :  1.26131e-05
 Reference value :  1.26234e-05
 Reference value :  1.26334e-05
 Reference value :  1.26401e-05
 Reference value :  1.26486e-05
 Reference value :  1.26657e-05
 Reference value :  1.26962e-05
 Reference value :  1.27472e-05
 Reference value :  1.27501e-05
 Reference value :  1.27501e-05
 Reference value :  1.27501e-05
 Reference value :  1.27502e-05
 Reference value :  1.27502e-05
 Reference value :  1.27502e-05
 Reference value :  1.27502e-05
 Reference value :  1.27502e-05
 Reference value :  1.27502e-05
 Reference value :  1.27502e-05
 Reference value :  1.27502e-05
 Reference value :  1.27503e-05
 Reference value :  1.27504e-05
 Reference value :  1.27506e-05
 Reference value :  1.27509e-05
 Reference value :  1.27514e-05
 Reference value :  1.27519e-05
 Reference value :  1.27525e-05
 Reference value :  1.27533e-05
 Reference value :  1.27541e-05
 Reference value :  1.27553e-05
 Reference value :  1.27562e-05
 Reference value :  1.27571e-05
 Reference value :  1.27582e-05
 Reference value :  1.27598e-05
 Reference value :  1.27613e-05
 Reference value :  1.27638e-05
 Reference value :  1.27667e-05
 Reference value :  1.27721e-05
 Reference value :  1.27829e-05
 Reference value :  1.28016e-05
 Reference value :  1.28388e-05
 Reference value :  1.29117e-05
 Reference value :  1.30000e-05
 Reference value :  1.30000e-05
 Reference value :  1.30000e-05
 Reference value :  1.30001e-05
 Reference value :  1.30001e-05
 Reference value :  1.30001e-05
 Reference value :  1.30001e-05
 Reference value :  1.30001e-05
 Reference value :  1.30002e-05
 Reference value :  1.30002e-05
 Reference value :  1.30004e-05
 Reference value :  1.30005e-05
 Reference value :  1.30009e-05
 Reference value :  1.30014e-05
 Reference value :  1.30022e-05
 Reference value :  1.30028e-05
 Reference value :  1.30035e-05
 Reference value :  1.30042e-05
 Reference value :  1.30051e-05
 Reference value :  1.30061e-05
 Reference value :  1.30070e-05
 Reference value :  1.30085e-05
 Reference value :  1.30099e-05
 Reference value :  1.30112e-05
 Reference value :  1.30126e-05
 Reference value :  1.30139e-05
 Reference value :  1.30155e-05
 Reference value :  1.30171e-05
 Reference value :  1.30188e-05
 Reference value :  1.30223e-05
 Reference value :  1.30293e-05
 Reference value :  1.30412e-05
 Reference value :  1.30649e-05
 Reference value :  1.31096e-05
 Reference value :  1.31990e-05
 Reference value :  1.32501e-05
 Reference value :  1.32501e-05
 Reference value :  1.32501e-05
 Reference value :  1.32502e-05
 Reference value :  1.32502e-05
 Reference value :  1.32502e-05
 Reference value :  1.32502e-05
 Reference value :  1.32502e-05
 Reference value :  1.32502e-05
 Reference value :  1.32502e-05
 Reference value :  1.32502e-05
 Reference value :  1.32503e-05
 Reference value :  1.32504e-05
 Reference value :  1.32506e-05
 Reference value :  1.32509e-05
 Reference value :  1.32514e-05
 Reference value :  1.32519e-05
 Reference value :  1.32525e-05
 Reference value :  1.32533e-05
 Reference value :  1.32541e-05
 Reference value :  1.32553e-05
 Reference value :  1.32562e-05
 Reference value :  1.32572e-05
 Reference value :  1.32582e-05
 Reference value :  1.32593e-05
 Reference value :  1.32606e-05
 Reference value :  1.32618e-05
 Reference value :  1.32633e-05
 Reference value :  1.32654e-05
 Reference value :  1.32677e-05
 Reference value :  1.32713e-05
 Reference value :  1.32771e-05
 Reference value :  1.32885e-05
 Reference value :  1.33114e-05
 Reference value :  1.33568e-05
 Reference value :  1.34476e-05
 Reference value :  1.35000e-05
 Reference value :  1.35000e-05
 Reference value :  1.35000e-05
 Reference value :  1.35001e-05
 Reference value :  1.35001e-05
 Reference value :  1.35001e-05
 Reference value :  1.35001e-05
 Reference value :  1.35001e-05
 Reference value :  1.35002e-05
 Reference value :  1.35002e-05
 Reference value :  1.35004e-05
 Reference value :  1.35005e-05
 Reference value :  1.35009e-05
 Reference value :  1.35014e-05
 Reference value :  1.35022e-05
 Reference value :  1.35029e-05
 Reference value :  1.35036e-05
 Reference value :  1.35043e-05
 Reference value :  1.35052e-05
 Reference value :  1.35060e-05
 Reference value :  1.35068e-05
 Reference value :  1.35078e-05
 Reference value :  1.35087e-05
 Reference value :  1.35097e-05
 Reference value :  1.35107e-05
 Reference value :  1.35119e-05
 Reference value :  1.35136e-05
 Reference value :  1.35148e-05
 Reference value :  1.35162e-05
 Reference value :  1.35176e-05
 Reference value :  1.35192e-05
 Reference value :  1.35211e-05
 Reference value :  1.35225e-05
 Reference value :  1.35241e-05
 Reference value :  1.35256e-05
 Reference value :  1.35271e-05
 Reference value :  1.35288e-05
 Reference value :  1.35310e-05
 Reference value :  1.35334e-05
 Reference value :  1.35378e-05
 Reference value :  1.35441e-05
 Reference value :  1.35509e-05
 Reference value :  1.35573e-05
 Reference value :  1.35634e-05
 Reference value :  1.35699e-05
 Reference value :  1.35787e-05
 Reference value :  1.35880e-05
 Reference value :  1.35953e-05
 Reference value :  1.36029e-05
 Reference value :  1.36100e-05
 Reference value :  1.36186e-05
 Reference value :  1.36309e-05
 Reference value :  1.36513e-05
 Reference value :  1.36824e-05
 Reference value :  1.36965e-05
 Reference value :  1.37157e-05
 Reference value :  1.37357e-05
 Reference value :  1.37501e-05
 Reference value :  1.37501e-05
 Reference value :  1.37501e-05
 Reference value :  1.37502e-05
 Reference value :  1.37502e-05
 Reference value :  1.37502e-05
 Reference value :  1.37502e-05
 Reference value :  1.37502e-05
 Reference value :  1.37502e-05
 Reference value :  1.37502e-05
 Reference value :  1.37502e-05
 Reference value :  1.37503e-05
 Reference value :  1.37504e-05
 Reference value :  1.37506e-05
 Reference value :  1.37509e-05
 Reference value :  1.37514e-05
 Reference value :  1.37519e-05
 Reference value :  1.37525e-05
 Reference value :  1.37533e-05
 Reference value :  1.37541e-05
 Reference value :  1.37553e-05
 Reference value :  1.37562e-05
 Reference value :  1.37571e-05
 Reference value :  1.37582e-05
 Reference value :  1.37598e-05
 Reference value :  1.37612e-05
 Reference value :  1.37638e-05
 Reference value :  1.37667e-05
 Reference value :  1.37721e-05
 Reference value :  1.37830e-05
 Reference value :  1.38016e-05
 Reference value :  1.38389e-05
 Reference value :  1.39126e-05
 Reference value :  1.40000e-05
 Reference value :  1.40000e-05
 Reference value :  1.40000e-05
 Reference value :  1.40001e-05
 Reference value :  1.40001e-05
 Reference value :  1.40001e-05
 Reference value :  1.40001e-05
 Reference value :  1.40001e-05
 Reference value :  1.40002e-05
 Reference value :  1.40002e-05
 Reference value :  1.40004e-05
 Reference value :  1.40005e-05
 Reference value :  1.40009e-05
 Reference value :  1.40014e-05
 Reference value :  1.40022e-05
 Reference value :  1.40028e-05
 Reference value :  1.40035e-05
 Reference value :  1.40042e-05
 Reference value :  1.40052e-05
 Reference value :  1.40061e-05
 Reference value :  1.40071e-05
 Reference value :  1.40085e-05
 Reference value :  1.40099e-05
 Reference value :  1.40112e-05
 Reference value :  1.40126e-05
 Reference value :  1.40139e-05
 Reference value :  1.40153e-05
 Reference value :  1.40169e-05
 Reference value :  1.40186e-05
 Reference value :  1.40220e-05
 Reference value :  1.40288e-05
 Reference value :  1.40405e-05
 Reference value :  1.40638e-05
 Reference value :  1.41077e-05
 Reference value :  1.41957e-05
 Reference value :  1.42501e-05
 Reference value :  1.42501e-05
 Reference value :  1.42501e-05
 Reference value :  1.42502e-05
 Reference value :  1.42502e-05
 Reference value :  1.42502e-05
 Reference value :  1.42502e-05
 Reference value :  1.42502e-05
 Reference value :  1.42502e-05
 Reference value :  1.42502e-05
 Reference value :  1.42502e-05
 Reference value :  1.42503e-05
 Reference value :  1.42504e-05
 Reference value :  1.42506e-05
 Reference value :  1.42509e-05
 Reference value :  1.42514e-05
 Reference value :  1.42519e-05
 Reference value :  1.42525e-05
 Reference value :  1.42533e-05
 Reference value :  1.42541e-05
 Reference value :  1.42553e-05
 Reference value :  1.42562e-05
 Reference value :  1.42572e-05
 Reference value :  1.42582e-05
 Reference value :  1.42593e-05
 Reference value :  1.42606e-05
 Reference value :  1.42619e-05
 Reference value :  1.42633e-05
 Reference value :  1.42654e-05
 Reference value :  1.42677e-05
 Reference value :  1.42713e-05
 Reference value :  1.42770e-05
 Reference value :  1.42885e-05
 Reference value :  1.43114e-05
 Reference value :  1.43569e-05
 Reference value :  1.44481e-05
 Reference value :  1.45000e-05
 Reference value :  1.45000e-05
 Reference value :  1.45000e-05
 Reference value :  1.45001e-05
 Reference value :  1.45001e-05
 Reference value :  1.45001e-05
 Reference value :  1.45001e-05
 Reference value :  1.45001e-05
 Reference value :  1.45002e-05
 Reference value :  1.45002e-05
 Reference value :  1.45004e-05
 Reference value :  1.45005e-05
 Reference value :  1.45009e-05
 Reference value :  1.45014e-05
 Reference value :  1.45022e-05
 Reference value :  1.45029e-05
 Reference value :  1.45036e-05
 Reference value :  1.45043e-05
 Reference value :  1.45051e-05
 Reference value :  1.45059e-05
 Reference value :  1.45067e-05
 Reference value :  1.45078e-05
 Reference value :  1.45088e-05
 Reference value :  1.45097e-05
 Reference value :  1.45108e-05
 Reference value :  1.45120e-05
 Reference value :  1.45139e-05
 Reference value :  1.45152e-05
 Reference value :  1.45167e-05
 Reference value :  1.45181e-05
 Reference value :  1.45197e-05
 Reference value :  1.45212e-05
 Reference value :  1.45224e-05
 Reference value :  1.45236e-05
 Reference value :  1.45249e-05
 Reference value :  1.45262e-05
 Reference value :  1.45279e-05
 Reference value :  1.45295e-05
 Reference value :  1.45322e-05
 Reference value :  1.45348e-05
 Reference value :  1.45399e-05
 Reference value :  1.45460e-05
 Reference value :  1.45553e-05
 Reference value :  1.45645e-05
 Reference value :  1.45771e-05
 Reference value :  1.45906e-05
 Reference value :  1.46143e-05
 Reference value :  1.46563e-05
 Reference value :  1.47100e-05
 Reference value :  1.47501e-05
 Reference value :  1.47501e-05
 Reference value :  1.47501e-05
 Reference value :  1.47502e-05
 Reference value :  1.47502e-05
 Reference value :  1.47502e-05
 Reference value :  1.47502e-05
 Reference value :  1.47502e-05
 Reference value :  1.47502e-05
 Reference value :  1.47502e-05
 Reference value :  1.47502e-05
 Reference value :  1.47503e-05
 Reference value :  1.47504e-05
 Reference value :  1.47506e-05
 Reference value :  1.47509e-05
 Reference value :  1.47514e-05
 Reference value :  1.47519e-05
 Reference value :  1.47525e-05
 Reference value :  1.47533e-05
 Reference value :  1.47541e-05
 Reference value :  1.47553e-05
 Reference value :  1.47562e-05
 Reference value :  1.47571e-05
 Reference value :  1.47582e-05
 Reference value :  1.47598e-05
 Reference value :  1.47612e-05
 Reference value :  1.47638e-05
 Reference value :  1.47667e-05
 Reference value :  1.47721e-05
 Reference value :  1.47830e-05
 Reference value :  1.48017e-05
 Reference value :  1.48390e-05
 Reference value :  1.49124e-05
 Reference value :  1.50000e-05
 Reference value :  1.50000e-05
 Reference value :  1.50000e-05
 Reference value :  1.50001e-05
 Reference value :  1.50001e-05
 Reference value :  1.50001e-05
 Reference value :  1.50001e-05
 Reference value :  1.50001e-05
 Reference value :  1.50002e-05
 Reference value :  1.50002e-05
 Reference value :  1.50004e-05
 Reference value :  1.50005e-05
 Reference value :  1.50009e-05
 Reference value :  1.50014e-05
 Reference value :  1.50022e-05
 Reference value :  1.50028e-05
 Reference value :  1.50035e-05
 Reference value :  1.50042e-05
 Reference value :  1.50051e-05
 Reference value :  1.50061e-05
 Reference value :  1.50070e-05
 Reference value :  1.50085e-05
 Reference value :  1.50099e-05
 Reference value :  1.50113e-05
 Reference value :  1.50128e-05
 Reference value :  1.50142e-05
 Reference value :  1.50157e-05
 Reference value :  1.50172e-05
 Reference value :  1.50190e-05
 Reference value :  1.50226e-05
 Reference value :  1.50284e-05
 Reference value :  1.50401e-05
 Reference value :  1.50622e-05
 Reference value :  1.51032e-05
 Reference value :  1.51851e-05
 Reference value :  1.52501e-05
 Reference value :  1.52501e-05
 Reference value :  1.52501e-05
 Reference value :  1.52502e-05
 Reference value :  1.52502e-05
 Reference value :  1.52502e-05
 Reference value :  1.52502e-05
 Reference value :  1.52502e-05
 Reference value :  1.52502e-05
 Reference value :  1.52502e-05
 Reference value :  1.52502e-05
 Reference value :  1.52503e-05
 Reference value :  1.52504e-05
 Reference value :  1.52506e-05
 Reference value :  1.52509e-05
 Reference value :  1.52514e-05
 Reference value :  1.52519e-05
 Reference value :  1.52525e-05
 Reference value :  1.52533e-05
 Reference value :  1.52541e-05
 Reference value :  1.52553e-05
 Reference value :  1.52562e-05
 Reference value :  1.52572e-05
 Reference value :  1.52582e-05
 Reference value :  1.52593e-05
 Reference value :  1.52606e-05
 Reference value :  1.52619e-05
 Reference value :  1.52633e-05
 Reference value :  1.52654e-05
 Reference value :  1.52677e-05
 Reference value :  1.52714e-05
 Reference value :  1.52771e-05
 Reference value :  1.52886e-05
 Reference value :  1.53116e-05
 Reference value :  1.53565e-05
 Reference value :  1.54463e-05
 Reference value :  1.55000e-05
 Reference value :  1.55008e-05
 Reference value :  1.55023e-05
 Reference value :  1.55031e-05
 Reference value :  1.55039e-05
 Reference value :  1.55048e-05
 Reference value :  1.55058e-05
 Reference value :  1.55066e-05
 Reference value :  1.55075e-05
 Reference value :  1.55084e-05
 Reference value :  1.55094e-05
 Reference value :  1.55103e-05
 Reference value :  1.55116e-05
 Reference value :  1.55131e-05
 Reference value :  1.55149e-05
 Reference value :  1.55167e-05
 Reference value :  1.55186e-05
 Reference value :  1.55203e-05
[...]
 Reference value :  1.74257e-04
 Reference value :  1.74258e-04
 Reference value :  1.74260e-04
 Reference value :  1.74261e-04
 Reference value :  1.74264e-04
 Reference value :  1.74267e-04
 Reference value :  1.74272e-04
 Reference value :  1.74283e-04
 Reference value :  1.74302e-04
 Reference value :  1.74330e-04
 Reference value :  1.74356e-04
 Reference value :  1.74397e-04
 Reference value :  1.74481e-04
 Reference value :  1.74500e-04
 Reference value :  1.74500e-04
 Reference value :  1.74500e-04
 Reference value :  1.74500e-04
 Reference value :  1.74500e-04
 Reference value :  1.74500e-04
 Reference value :  1.74500e-04
 Reference value :  1.74500e-04
 Reference value :  1.74500e-04
 Reference value :  1.74500e-04
 Reference value :  1.74500e-04
 Reference value :  1.74501e-04
 Reference value :  1.74501e-04
 Reference value :  1.74501e-04
 Reference value :  1.74502e-04
 Reference value :  1.74503e-04
 Reference value :  1.74504e-04
 Reference value :  1.74504e-04
 Reference value :  1.74505e-04
 Reference value :  1.74506e-04
 Reference value :  1.74507e-04
 Reference value :  1.74509e-04
 Reference value :  1.74510e-04
 Reference value :  1.74511e-04
 Reference value :  1.74513e-04
 Reference value :  1.74514e-04
 Reference value :  1.74515e-04
 Reference value :  1.74517e-04
 Reference value :  1.74519e-04
 Reference value :  1.74522e-04
 Reference value :  1.74529e-04
 Reference value :  1.74542e-04
 Reference value :  1.74567e-04
 Reference value :  1.74615e-04
 Reference value :  1.74713e-04
 Reference value :  1.74750e-04
 Reference value :  1.74750e-04
 Reference value :  1.74750e-04
 Reference value :  1.74750e-04
 Reference value :  1.74750e-04
 Reference value :  1.74750e-04
 Reference value :  1.74750e-04
 Reference value :  1.74750e-04
 Reference value :  1.74750e-04
 Reference value :  1.74750e-04
 Reference value :  1.74750e-04
 Reference value :  1.74750e-04
 Reference value :  1.74750e-04
 Reference value :  1.74751e-04
 Reference value :  1.74751e-04
 Reference value :  1.74751e-04
 Reference value :  1.74752e-04
 Reference value :  1.74752e-04
 Reference value :  1.74753e-04
 Reference value :  1.74754e-04
 Reference value :  1.74755e-04
 Reference value :  1.74756e-04
 Reference value :  1.74757e-04
 Reference value :  1.74758e-04
 Reference value :  1.74759e-04
 Reference value :  1.74761e-04
 Reference value :  1.74762e-04
 Reference value :  1.74763e-04
 Reference value :  1.74765e-04
 Reference value :  1.74768e-04
 Reference value :  1.74771e-04
 Reference value :  1.74777e-04
 Reference value :  1.74788e-04
 Reference value :  1.74811e-04
 Reference value :  1.74857e-04
 Reference value :  1.74948e-04
 Reference value :  1.75000e-04
 Reference value :  1.75000e-04
 Reference value :  1.75000e-04
 Reference value :  1.75000e-04
 Reference value :  1.75000e-04
 Reference value :  1.75000e-04
 Reference value :  1.75000e-04
 Reference value :  1.75000e-04
 Reference value :  1.75000e-04
 Reference value :  1.75000e-04
 Reference value :  1.75000e-04
 Reference value :  1.75001e-04
 Reference value :  1.75001e-04
 Reference value :  1.75001e-04
 Reference value :  1.75002e-04
 Reference value :  1.75003e-04
 Reference value :  1.75004e-04
 Reference value :  1.75004e-04
 Reference value :  1.75005e-04
 Reference value :  1.75006e-04
 Reference value :  1.75007e-04
 Reference value :  1.75008e-04
 Reference value :  1.75009e-04
 Reference value :  1.75010e-04
 Reference value :  1.75011e-04
 Reference value :  1.75012e-04
 Reference value :  1.75014e-04
 Reference value :  1.75015e-04
 Reference value :  1.75016e-04
 Reference value :  1.75018e-04
 Reference value :  1.75019e-04
 Reference value :  1.75021e-04
 Reference value :  1.75023e-04
 Reference value :  1.75024e-04
 Reference value :  1.75026e-04
 Reference value :  1.75027e-04
 Reference value :  1.75029e-04
 Reference value :  1.75031e-04
 Reference value :  1.75033e-04
 Reference value :  1.75036e-04
 Reference value :  1.75040e-04
 Reference value :  1.75043e-04
 Reference value :  1.75045e-04
 Reference value :  1.75047e-04
 Reference value :  1.75049e-04
 Reference value :  1.75051e-04
 Reference value :  1.75055e-04
 Reference value :  1.75060e-04
 Reference value :  1.75067e-04
 Reference value :  1.75077e-04
 Reference value :  1.75092e-04
 Reference value :  1.75112e-04
 Reference value :  1.75139e-04
 Reference value :  1.75190e-04
 Reference value :  1.75250e-04
 Reference value :  1.75250e-04
 Reference value :  1.75250e-04
 Reference value :  1.75250e-04
 Reference value :  1.75250e-04
 Reference value :  1.75250e-04
 Reference value :  1.75250e-04
 Reference value :  1.75250e-04
 Reference value :  1.75250e-04
 Reference value :  1.75250e-04
 Reference value :  1.75250e-04
 Reference value :  1.75250e-04
 Reference value :  1.75250e-04
 Reference value :  1.75251e-04
 Reference value :  1.75251e-04
 Reference value :  1.75251e-04
 Reference value :  1.75252e-04
 Reference value :  1.75252e-04
 Reference value :  1.75253e-04
 Reference value :  1.75254e-04
 Reference value :  1.75255e-04
 Reference value :  1.75256e-04
 Reference value :  1.75257e-04
 Reference value :  1.75258e-04
 Reference value :  1.75260e-04
 Reference value :  1.75261e-04
 Reference value :  1.75264e-04
 Reference value :  1.75266e-04
 Reference value :  1.75271e-04
 Reference value :  1.75282e-04
 Reference value :  1.75300e-04
 Reference value :  1.75336e-04
 Reference value :  1.75408e-04
 Reference value :  1.75500e-04
 Reference value :  1.75500e-04
 Reference value :  1.75500e-04
 Reference value :  1.75500e-04
 Reference value :  1.75500e-04
 Reference value :  1.75500e-04
 Reference value :  1.75500e-04
 Reference value :  1.75500e-04
 Reference value :  1.75500e-04
 Reference value :  1.75500e-04
 Reference value :  1.75500e-04
 Reference value :  1.75501e-04
 Reference value :  1.75501e-04
 Reference value :  1.75501e-04
 Reference value :  1.75502e-04
 Reference value :  1.75503e-04
 Reference value :  1.75504e-04
 Reference value :  1.75504e-04
 Reference value :  1.75505e-04
 Reference value :  1.75506e-04
 Reference value :  1.75507e-04
 Reference value :  1.75509e-04
 Reference value :  1.75510e-04
 Reference value :  1.75511e-04
 Reference value :  1.75512e-04
 Reference value :  1.75514e-04
 Reference value :  1.75515e-04
 Reference value :  1.75517e-04
 Reference value :  1.75518e-04
 Reference value :  1.75522e-04
 Reference value :  1.75528e-04
 Reference value :  1.75540e-04
 Reference value :  1.75563e-04
 Reference value :  1.75606e-04
 Reference value :  1.75687e-04
 Reference value :  1.75750e-04
 Reference value :  1.75750e-04
 Reference value :  1.75750e-04
 Reference value :  1.75750e-04
 Reference value :  1.75750e-04
 Reference value :  1.75750e-04
 Reference value :  1.75750e-04
 Reference value :  1.75750e-04
 Reference value :  1.75750e-04
 Reference value :  1.75750e-04
 Reference value :  1.75750e-04
 Reference value :  1.75750e-04
 Reference value :  1.75750e-04
 Reference value :  1.75751e-04
 Reference value :  1.75751e-04
 Reference value :  1.75751e-04
 Reference value :  1.75752e-04
 Reference value :  1.75752e-04
 Reference value :  1.75753e-04
 Reference value :  1.75754e-04
 Reference value :  1.75755e-04
 Reference value :  1.75756e-04
 Reference value :  1.75757e-04
 Reference value :  1.75758e-04
 Reference value :  1.75759e-04
 Reference value :  1.75761e-04
 Reference value :  1.75763e-04
 Reference value :  1.75766e-04
 Reference value :  1.75770e-04
 Reference value :  1.75779e-04
 Reference value :  1.75796e-04
 Reference value :  1.75829e-04
 Reference value :  1.75895e-04
 Reference value :  1.76000e-04
 Reference value :  1.76000e-04
 Reference value :  1.76000e-04
 Reference value :  1.76000e-04
 Reference value :  1.76000e-04
 Reference value :  1.76000e-04
 Reference value :  1.76000e-04
 Reference value :  1.76000e-04
 Reference value :  1.76000e-04
 Reference value :  1.76000e-04
 Reference value :  1.76000e-04
 Reference value :  1.76001e-04
 Reference value :  1.76001e-04
 Reference value :  1.76001e-04
 Reference value :  1.76002e-04
 Reference value :  1.76003e-04
 Reference value :  1.76004e-04
 Reference value :  1.76004e-04
 Reference value :  1.76005e-04
 Reference value :  1.76006e-04
 Reference value :  1.76007e-04
 Reference value :  1.76008e-04
 Reference value :  1.76009e-04
 Reference value :  1.76010e-04
 Reference value :  1.76011e-04
 Reference value :  1.76012e-04
 Reference value :  1.76014e-04
 Reference value :  1.76016e-04
 Reference value :  1.76018e-04
 Reference value :  1.76021e-04
 Reference value :  1.76022e-04
 Reference value :  1.76024e-04
 Reference value :  1.76026e-04
 Reference value :  1.76028e-04
 Reference value :  1.76029e-04
 Reference value :  1.76032e-04
 Reference value :  1.76034e-04
 Reference value :  1.76039e-04
 Reference value :  1.76045e-04
 Reference value :  1.76055e-04
 Reference value :  1.76063e-04
 Reference value :  1.76073e-04
 Reference value :  1.76080e-04
 Reference value :  1.76086e-04
 Reference value :  1.76093e-04
 Reference value :  1.76100e-04
 Reference value :  1.76107e-04
 Reference value :  1.76114e-04
 Reference value :  1.76128e-04
 Reference value :  1.76142e-04
 Reference value :  1.76165e-04
 Reference value :  1.76198e-04
 Reference value :  1.76247e-04
 Reference value :  1.76250e-04
 Reference value :  1.76250e-04
 Reference value :  1.76250e-04
 Reference value :  1.76250e-04
 Reference value :  1.76250e-04
 Reference value :  1.76250e-04
 Reference value :  1.76250e-04
 Reference value :  1.76250e-04
 Reference value :  1.76250e-04
 Reference value :  1.76250e-04
 Reference value :  1.76250e-04
 Reference value :  1.76250e-04
 Reference value :  1.76250e-04
 Reference value :  1.76251e-04
 Reference value :  1.76251e-04
 Reference value :  1.76251e-04
 Reference value :  1.76252e-04
 Reference value :  1.76252e-04
 Reference value :  1.76253e-04
 Reference value :  1.76254e-04
 Reference value :  1.76255e-04
 Reference value :  1.76256e-04
 Reference value :  1.76257e-04
 Reference value :  1.76258e-04
 Reference value :  1.76260e-04
 Reference value :  1.76261e-04
 Reference value :  1.76264e-04
 Reference value :  1.76267e-04
 Reference value :  1.76273e-04
 Reference value :  1.76284e-04
 Reference value :  1.76302e-04
 Reference value :  1.76340e-04
 Reference value :  1.76410e-04
 Reference value :  1.76500e-04
 Reference value :  1.76500e-04
 Reference value :  1.76500e-04
 Reference value :  1.76500e-04
 Reference value :  1.76500e-04
 Reference value :  1.76500e-04
 Reference value :  1.76500e-04
 Reference value :  1.76500e-04
 Reference value :  1.76500e-04
 Reference value :  1.76500e-04
 Reference value :  1.76500e-04
 Reference value :  1.76501e-04
 Reference value :  1.76501e-04
 Reference value :  1.76501e-04
 Reference value :  1.76502e-04
 Reference value :  1.76503e-04
 Reference value :  1.76504e-04
 Reference value :  1.76504e-04
 Reference value :  1.76505e-04
 Reference value :  1.76506e-04
 Reference value :  1.76507e-04
 Reference value :  1.76509e-04
 Reference value :  1.76510e-04
 Reference value :  1.76511e-04
 Reference value :  1.76513e-04
 Reference value :  1.76514e-04
 Reference value :  1.76516e-04
 Reference value :  1.76517e-04
 Reference value :  1.76519e-04
 Reference value :  1.76523e-04
 Reference value :  1.76528e-04
 Reference value :  1.76540e-04
 Reference value :  1.76562e-04
 Reference value :  1.76603e-04
 Reference value :  1.76686e-04
 Reference value :  1.76750e-04
 Reference value :  1.76750e-04
 Reference value :  1.76750e-04
 Reference value :  1.76750e-04
 Reference value :  1.76750e-04
 Reference value :  1.76750e-04
 Reference value :  1.76750e-04
 Reference value :  1.76750e-04
 Reference value :  1.76750e-04
 Reference value :  1.76750e-04
 Reference value :  1.76750e-04
 Reference value :  1.76750e-04
 Reference value :  1.76750e-04
 Reference value :  1.76751e-04
 Reference value :  1.76751e-04
 Reference value :  1.76751e-04
 Reference value :  1.76752e-04
 Reference value :  1.76752e-04
 Reference value :  1.76753e-04
 Reference value :  1.76754e-04
 Reference value :  1.76755e-04
 Reference value :  1.76756e-04
 Reference value :  1.76757e-04
 Reference value :  1.76758e-04
 Reference value :  1.76759e-04
 Reference value :  1.76761e-04
 Reference value :  1.76762e-04
 Reference value :  1.76763e-04
 Reference value :  1.76765e-04
 Reference value :  1.76768e-04
 Reference value :  1.76771e-04
 Reference value :  1.76777e-04
 Reference value :  1.76788e-04
 Reference value :  1.76811e-04
 Reference value :  1.76856e-04
 Reference value :  1.76945e-04
 Reference value :  1.77000e-04
 Reference value :  1.77000e-04
 Reference value :  1.77000e-04
 Reference value :  1.77000e-04
 Reference value :  1.77000e-04
 Reference value :  1.77000e-04
 Reference value :  1.77000e-04
 Reference value :  1.77000e-04
 Reference value :  1.77000e-04
 Reference value :  1.77000e-04
 Reference value :  1.77000e-04
 Reference value :  1.77001e-04
 Reference value :  1.77001e-04
 Reference value :  1.77001e-04
 Reference value :  1.77002e-04
 Reference value :  1.77003e-04
 Reference value :  1.77004e-04
 Reference value :  1.77004e-04
 Reference value :  1.77005e-04
 Reference value :  1.77006e-04
 Reference value :  1.77007e-04
 Reference value :  1.77008e-04
 Reference value :  1.77009e-04
 Reference value :  1.77010e-04
 Reference value :  1.77011e-04
 Reference value :  1.77012e-04
 Reference value :  1.77014e-04
 Reference value :  1.77015e-04
 Reference value :  1.77017e-04
 Reference value :  1.77018e-04
 Reference value :  1.77020e-04
 Reference value :  1.77021e-04
 Reference value :  1.77023e-04
 Reference value :  1.77024e-04
 Reference value :  1.77025e-04
 Reference value :  1.77026e-04
 Reference value :  1.77028e-04
 Reference value :  1.77029e-04
 Reference value :  1.77032e-04
 Reference value :  1.77034e-04
 Reference value :  1.77039e-04
 Reference value :  1.77044e-04
 Reference value :  1.77050e-04
 Reference value :  1.77057e-04
 Reference value :  1.77062e-04
 Reference value :  1.77068e-04
 Reference value :  1.77074e-04
 Reference value :  1.77081e-04
 Reference value :  1.77094e-04
 Reference value :  1.77108e-04
 Reference value :  1.77123e-04
 Reference value :  1.77140e-04
 Reference value :  1.77175e-04
 Reference value :  1.77244e-04
 Reference value :  1.77250e-04
 Reference value :  1.77250e-04
 Reference value :  1.77250e-04
 Reference value :  1.77250e-04
 Reference value :  1.77250e-04
 Reference value :  1.77250e-04
 Reference value :  1.77250e-04
 Reference value :  1.77250e-04
 Reference value :  1.77250e-04
 Reference value :  1.77250e-04
 Reference value :  1.77250e-04
 Reference value :  1.77250e-04
 Reference value :  1.77250e-04
 Reference value :  1.77251e-04
 Reference value :  1.77251e-04
 Reference value :  1.77251e-04
 Reference value :  1.77252e-04
 Reference value :  1.77252e-04
 Reference value :  1.77253e-04
 Reference value :  1.77254e-04
 Reference value :  1.77255e-04
 Reference value :  1.77256e-04
 Reference value :  1.77257e-04
 Reference value :  1.77258e-04
 Reference value :  1.77260e-04
 Reference value :  1.77261e-04
 Reference value :  1.77264e-04
 Reference value :  1.77267e-04
 Reference value :  1.77272e-04
 Reference value :  1.77283e-04
 Reference value :  1.77302e-04
 Reference value :  1.77340e-04
 Reference value :  1.77412e-04
 Reference value :  1.77500e-04
 Reference value :  1.77500e-04
 Reference value :  1.77500e-04
 Reference value :  1.77500e-04
 Reference value :  1.77500e-04
 Reference value :  1.77500e-04
 Reference value :  1.77500e-04
 Reference value :  1.77500e-04
 Reference value :  1.77500e-04
 Reference value :  1.77500e-04
 Reference value :  1.77500e-04
 Reference value :  1.77501e-04
 Reference value :  1.77501e-04
 Reference value :  1.77501e-04
 Reference value :  1.77502e-04
 Reference value :  1.77503e-04
 Reference value :  1.77503e-04
 Reference value :  1.77504e-04
 Reference value :  1.77505e-04
 Reference value :  1.77506e-04
 Reference value :  1.77507e-04
 Reference value :  1.77508e-04
 Reference value :  1.77510e-04
 Reference value :  1.77511e-04
 Reference value :  1.77513e-04
 Reference value :  1.77514e-04
 Reference value :  1.77516e-04
 Reference value :  1.77518e-04
 Reference value :  1.77520e-04
 Reference value :  1.77523e-04
 Reference value :  1.77530e-04
 Reference value :  1.77540e-04
 Reference value :  1.77561e-04
 Reference value :  1.77599e-04
 Reference value :  1.77670e-04
 Reference value :  1.77750e-04
 Reference value :  1.77750e-04
 Reference value :  1.77750e-04
 Reference value :  1.77750e-04
 Reference value :  1.77750e-04
 Reference value :  1.77750e-04
 Reference value :  1.77750e-04
 Reference value :  1.77750e-04
 Reference value :  1.77750e-04
 Reference value :  1.77750e-04
 Reference value :  1.77750e-04
 Reference value :  1.77750e-04
 Reference value :  1.77750e-04
 Reference value :  1.77751e-04
 Reference value :  1.77751e-04
 Reference value :  1.77751e-04
 Reference value :  1.77752e-04
 Reference value :  1.77752e-04
 Reference value :  1.77753e-04
 Reference value :  1.77754e-04
 Reference value :  1.77755e-04
 Reference value :  1.77756e-04
 Reference value :  1.77757e-04
 Reference value :  1.77758e-04
 Reference value :  1.77759e-04
 Reference value :  1.77761e-04
 Reference value :  1.77763e-04
 Reference value :  1.77766e-04
 Reference value :  1.77771e-04
 Reference value :  1.77780e-04
 Reference value :  1.77798e-04
 Reference value :  1.77831e-04
 Reference value :  1.77898e-04
 Reference value :  1.78000e-04
 Reference value :  1.78000e-04
 Reference value :  1.78000e-04
 Reference value :  1.78000e-04
 Reference value :  1.78000e-04
 Reference value :  1.78000e-04
 Reference value :  1.78000e-04
 Reference value :  1.78000e-04
 Reference value :  1.78000e-04
 Reference value :  1.78000e-04
 Reference value :  1.78000e-04
 Reference value :  1.78001e-04
 Reference value :  1.78001e-04
 Reference value :  1.78001e-04
 Reference value :  1.78002e-04
 Reference value :  1.78003e-04
 Reference value :  1.78003e-04
 Reference value :  1.78004e-04
 Reference value :  1.78005e-04
 Reference value :  1.78006e-04
 Reference value :  1.78007e-04
 Reference value :  1.78008e-04
 Reference value :  1.78009e-04
 Reference value :  1.78010e-04
 Reference value :  1.78011e-04
 Reference value :  1.78012e-04
 Reference value :  1.78014e-04
 Reference value :  1.78016e-04
 Reference value :  1.78019e-04
 Reference value :  1.78021e-04
 Reference value :  1.78024e-04
 Reference value :  1.78027e-04
 Reference value :  1.78031e-04
 Reference value :  1.78037e-04
 Reference value :  1.78046e-04
 Reference value :  1.78059e-04
 Reference value :  1.78081e-04
 Reference value :  1.78119e-04
 Reference value :  1.78181e-04
 Reference value :  1.78250e-04
 Reference value :  1.78250e-04
 Reference value :  1.78250e-04
 Reference value :  1.78250e-04
 Reference value :  1.78250e-04
 Reference value :  1.78250e-04
 Reference value :  1.78250e-04
 Reference value :  1.78250e-04
 Reference value :  1.78250e-04
 Reference value :  1.78250e-04
 Reference value :  1.78250e-04
 Reference value :  1.78250e-04
 Reference value :  1.78250e-04
 Reference value :  1.78251e-04
 Reference value :  1.78251e-04
 Reference value :  1.78251e-04
 Reference value :  1.78252e-04
 Reference value :  1.78253e-04
 Reference value :  1.78253e-04
 Reference value :  1.78254e-04
 Reference value :  1.78255e-04
 Reference value :  1.78256e-04
 Reference value :  1.78258e-04
 Reference value :  1.78259e-04
 Reference value :  1.78261e-04
 Reference value :  1.78264e-04
 Reference value :  1.78267e-04
 Reference value :  1.78272e-04
 Reference value :  1.78282e-04
 Reference value :  1.78299e-04
 Reference value :  1.78332e-04
 Reference value :  1.78392e-04
 Reference value :  1.78500e-04
No. of Data Rows : 27899
ngspice-44 done
