
Note: Compatibility modes selected: hs a


Circuit: ** sch_path: /home/ece/cace/sar-adc-using-sky130-pdk/runs/run_2025-09-13_01-34-31/parameters/dnl/run_0/sar_output_dnl.sch

option SCALE: Scale is set to 1e-06 for instance and model parameters
option SCALE: Scale is set to 1e-06 for instance and model parameters
option SCALE: Scale is set to 1e-06 for instance and model parameters
option SCALE: Scale is set to 1e-06 for instance and model parameters
Doing analysis at TEMP = 27.000000 and TNOM = 27.000000

Using KLU as Direct Linear Solver
Operating point simulation skipped by 'uic',
  now using transient initial conditions.
 Reference value :  1.00000e-12
 Reference value :  1.19600e-12
 Reference value :  6.31085e-12
 Reference value :  5.79066e-11
 Reference value :  1.35467e-10
 Reference value :  4.19204e-10
 Reference value :  6.79700e-10
 Reference value :  9.71754e-10
 Reference value :  2.48451e-09
 Reference value :  5.15284e-09
 Reference value :  6.88736e-09
 Reference value :  8.29313e-09
 Reference value :  1.14498e-08
 Reference value :  1.24124e-08
 Reference value :  1.41930e-08
 Reference value :  1.88552e-08
 Reference value :  2.99217e-08
 Reference value :  4.58151e-08
 Reference value :  1.71778e-07
 Reference value :  2.50170e-07
 Reference value :  2.50223e-07
 Reference value :  2.50405e-07
 Reference value :  2.51388e-07
 Reference value :  2.52927e-07
 Reference value :  2.54241e-07
 Reference value :  2.57107e-07
 Reference value :  2.66245e-07
 Reference value :  3.54667e-07
 Reference value :  4.09780e-07
 Reference value :  4.56308e-07
 Reference value :  4.89230e-07
 Reference value :  5.00030e-07
 Reference value :  5.00124e-07
 Reference value :  5.00518e-07
 Reference value :  5.01729e-07
 Reference value :  5.03189e-07
 Reference value :  5.05264e-07
 Reference value :  5.07268e-07
 Reference value :  5.09850e-07
 Reference value :  5.12525e-07
 Reference value :  5.15584e-07
 Reference value :  5.23038e-07
 Reference value :  5.87076e-07
 Reference value :  7.50130e-07
 Reference value :  7.50224e-07
 Reference value :  7.50448e-07
 Reference value :  7.51567e-07
 Reference value :  7.53359e-07
 Reference value :  7.54449e-07
 Reference value :  7.55630e-07
 Reference value :  7.57326e-07
 Reference value :  7.59233e-07
 Reference value :  7.62115e-07
 Reference value :  7.76160e-07
 Reference value :  8.81327e-07
 Reference value :  1.00003e-06
 Reference value :  1.00010e-06
 Reference value :  1.00016e-06
 Reference value :  1.00052e-06
 Reference value :  1.00131e-06
 Reference value :  1.00230e-06
 Reference value :  1.00334e-06
 Reference value :  1.00456e-06
 Reference value :  1.00576e-06
 Reference value :  1.00819e-06
 Reference value :  1.01043e-06
 Reference value :  1.01263e-06
 Reference value :  1.01438e-06
 Reference value :  1.01636e-06
 Reference value :  1.01855e-06
 Reference value :  1.02802e-06
 Reference value :  1.06093e-06
 Reference value :  1.08931e-06
 Reference value :  1.09936e-06
 Reference value :  1.11087e-06
 Reference value :  1.12860e-06
 Reference value :  1.20439e-06
 Reference value :  1.25013e-06
 Reference value :  1.25022e-06
 Reference value :  1.25070e-06
 Reference value :  1.25206e-06
 Reference value :  1.25335e-06
 Reference value :  1.25446e-06
 Reference value :  1.25664e-06
 Reference value :  1.26682e-06
 Reference value :  1.38820e-06
 Reference value :  1.50007e-06
 Reference value :  1.50016e-06
 Reference value :  1.50052e-06
 Reference value :  1.50182e-06
 Reference value :  1.50278e-06
 Reference value :  1.50391e-06
 Reference value :  1.50638e-06
 Reference value :  1.50718e-06
 Reference value :  1.50888e-06
 Reference value :  1.51087e-06
 Reference value :  1.52771e-06
 Reference value :  1.75011e-06
 Reference value :  1.75020e-06
 Reference value :  1.75032e-06
 Reference value :  1.75101e-06
 Reference value :  1.75258e-06
 Reference value :  1.75386e-06
 Reference value :  1.75500e-06
 Reference value :  1.75645e-06
 Reference value :  1.76144e-06
 Reference value :  1.78674e-06
 Reference value :  2.00001e-06
 Reference value :  2.00010e-06
 Reference value :  2.00016e-06
 Reference value :  2.00052e-06
 Reference value :  2.00182e-06
 Reference value :  2.00332e-06
 Reference value :  2.00449e-06
 Reference value :  2.00584e-06
 Reference value :  2.00836e-06
 Reference value :  2.00975e-06
 Reference value :  2.01278e-06
 Reference value :  2.01496e-06
 Reference value :  2.01716e-06
 Reference value :  2.02138e-06
 Reference value :  2.04011e-06
 Reference value :  2.18053e-06
 Reference value :  2.25017e-06
 Reference value :  2.25026e-06
 Reference value :  2.25070e-06
 Reference value :  2.25150e-06
 Reference value :  2.25326e-06
 Reference value :  2.25439e-06
 Reference value :  2.25560e-06
 Reference value :  2.25929e-06
 Reference value :  2.28646e-06
 Reference value :  2.50000e-06
 Reference value :  2.50011e-06
 Reference value :  2.50034e-06
 Reference value :  2.50131e-06
 Reference value :  2.50278e-06
 Reference value :  2.50391e-06
 Reference value :  2.50639e-06
 Reference value :  2.50806e-06
 Reference value :  2.50982e-06
 Reference value :  2.51200e-06
 Reference value :  2.54558e-06
 Reference value :  2.75011e-06
 Reference value :  2.75020e-06
 Reference value :  2.75032e-06
 Reference value :  2.75101e-06
 Reference value :  2.75202e-06
 Reference value :  2.75326e-06
 Reference value :  2.75378e-06
 Reference value :  2.75490e-06
 Reference value :  2.75627e-06
 Reference value :  2.76090e-06
 Reference value :  2.78160e-06
 Reference value :  2.94445e-06
 Reference value :  3.00003e-06
 Reference value :  3.00011e-06
 Reference value :  3.00022e-06
 Reference value :  3.00086e-06
 Reference value :  3.00231e-06
 Reference value :  3.00332e-06
 Reference value :  3.00521e-06
 Reference value :  3.00650e-06
 Reference value :  3.00976e-06
 Reference value :  3.01278e-06
 Reference value :  3.01496e-06
 Reference value :  3.01716e-06
 Reference value :  3.01946e-06
 Reference value :  3.03193e-06
 Reference value :  3.07141e-06
 Reference value :  3.09822e-06
 Reference value :  3.11961e-06
 Reference value :  3.14802e-06
 Reference value :  3.17853e-06
 Reference value :  3.20359e-06
 Reference value :  3.21885e-06
 Reference value :  3.25013e-06
 Reference value :  3.25022e-06
 Reference value :  3.25045e-06
 Reference value :  3.25150e-06
 Reference value :  3.25326e-06
 Reference value :  3.25497e-06
 Reference value :  3.25769e-06
 Reference value :  3.27239e-06
 Reference value :  3.50000e-06
 Reference value :  3.50010e-06
 Reference value :  3.50022e-06
 Reference value :  3.50086e-06
 Reference value :  3.50231e-06
 Reference value :  3.50333e-06
 Reference value :  3.50550e-06
 Reference value :  3.50719e-06
 Reference value :  3.50889e-06
 Reference value :  3.51087e-06
 Reference value :  3.52769e-06
 Reference value :  3.75010e-06
 Reference value :  3.75017e-06
 Reference value :  3.75022e-06
 Reference value :  3.75045e-06
 Reference value :  3.75150e-06
 Reference value :  3.75325e-06
 Reference value :  3.75437e-06
 Reference value :  3.75548e-06
 Reference value :  3.75711e-06
 Reference value :  3.76991e-06
 Reference value :  3.94342e-06
 Reference value :  4.00007e-06
 Reference value :  4.00016e-06
 Reference value :  4.00052e-06
 Reference value :  4.00182e-06
 Reference value :  4.00332e-06
 Reference value :  4.00521e-06
 Reference value :  4.00650e-06
 Reference value :  4.00976e-06
 Reference value :  4.01278e-06
 Reference value :  4.01496e-06
 Reference value :  4.01716e-06
 Reference value :  4.01945e-06
 Reference value :  4.02660e-06
 Reference value :  4.03587e-06
 Reference value :  4.04491e-06
 Reference value :  4.04820e-06
 Reference value :  4.05524e-06
 Reference value :  4.07021e-06
 Reference value :  4.09518e-06
 Reference value :  4.25011e-06
 Reference value :  4.25020e-06
 Reference value :  4.25045e-06
 Reference value :  4.25150e-06
 Reference value :  4.25325e-06
 Reference value :  4.25433e-06
 Reference value :  4.25494e-06
 Reference value :  4.26201e-06
 Reference value :  4.46681e-06
 Reference value :  4.50007e-06
 Reference value :  4.50012e-06
 Reference value :  4.50034e-06
 Reference value :  4.50086e-06
 Reference value :  4.50175e-06
 Reference value :  4.50322e-06
 Reference value :  4.50521e-06
 Reference value :  4.50673e-06
 Reference value :  4.50840e-06
 Reference value :  4.51145e-06
 Reference value :  4.51860e-06
 Reference value :  4.59200e-06
 Reference value :  4.75011e-06
 Reference value :  4.75017e-06
 Reference value :  4.75022e-06
 Reference value :  4.75032e-06
 Reference value :  4.75070e-06
 Reference value :  4.75150e-06
 Reference value :  4.75325e-06
 Reference value :  4.75377e-06
 Reference value :  4.75490e-06
 Reference value :  4.75627e-06
 Reference value :  4.75793e-06
 Reference value :  4.76166e-06
 Reference value :  4.77309e-06
 Reference value :  4.86790e-06
 Reference value :  5.00003e-06
 Reference value :  5.00011e-06
 Reference value :  5.00034e-06
 Reference value :  5.00086e-06
 Reference value :  5.00182e-06
 Reference value :  5.00278e-06
 Reference value :  5.00334e-06
 Reference value :  5.00457e-06
 Reference value :  5.00575e-06
 Reference value :  5.00725e-06
 Reference value :  5.00935e-06
 Reference value :  5.01146e-06
 Reference value :  5.01350e-06
 Reference value :  5.01645e-06
 Reference value :  5.02198e-06
 Reference value :  5.02822e-06
 Reference value :  5.04118e-06
 Reference value :  5.04772e-06
 Reference value :  5.05378e-06
 Reference value :  5.08750e-06
 Reference value :  5.17207e-06
 Reference value :  5.23322e-06
 Reference value :  5.25010e-06
 Reference value :  5.25013e-06
 Reference value :  5.25020e-06
 Reference value :  5.25022e-06
 Reference value :  5.25032e-06
 Reference value :  5.25070e-06
 Reference value :  5.25150e-06
 Reference value :  5.25251e-06
 Reference value :  5.25374e-06
 Reference value :  5.25494e-06
 Reference value :  5.25640e-06
 Reference value :  5.26215e-06
 Reference value :  5.28507e-06
 Reference value :  5.44049e-06
 Reference value :  5.50003e-06
 Reference value :  5.50010e-06
 Reference value :  5.50012e-06
 Reference value :  5.50022e-06
 Reference value :  5.50052e-06
 Reference value :  5.50131e-06
 Reference value :  5.50174e-06
 Reference value :  5.50266e-06
 Reference value :  5.50320e-06
 Reference value :  5.50377e-06
 Reference value :  5.50519e-06
 Reference value :  5.50670e-06
 Reference value :  5.50836e-06
 Reference value :  5.51025e-06
 Reference value :  5.51136e-06
 Reference value :  5.51505e-06
 Reference value :  5.52521e-06
 Reference value :  5.59810e-06
 Reference value :  5.75011e-06
 Reference value :  5.75020e-06
 Reference value :  5.75026e-06
 Reference value :  5.75070e-06
 Reference value :  5.75150e-06
 Reference value :  5.75251e-06
 Reference value :  5.75325e-06
 Reference value :  5.75377e-06
 Reference value :  5.75489e-06
 Reference value :  5.75626e-06
 Reference value :  5.75892e-06
 Reference value :  5.76406e-06
 Reference value :  5.79579e-06
 Reference value :  6.00001e-06
 Reference value :  6.00010e-06
 Reference value :  6.00016e-06
 Reference value :  6.00052e-06
 Reference value :  6.00182e-06
 Reference value :  6.00278e-06
 Reference value :  6.00392e-06
 Reference value :  6.00518e-06
 Reference value :  6.00576e-06
 Reference value :  6.00726e-06
 Reference value :  6.00935e-06
 Reference value :  6.01147e-06
 Reference value :  6.01349e-06
 Reference value :  6.01643e-06
 Reference value :  6.01871e-06
 Reference value :  6.02393e-06
 Reference value :  6.02552e-06
 Reference value :  6.02884e-06
 Reference value :  6.03547e-06
 Reference value :  6.05677e-06
 Reference value :  6.14505e-06
 Reference value :  6.25011e-06
 Reference value :  6.25020e-06
 Reference value :  6.25026e-06
 Reference value :  6.25070e-06
 Reference value :  6.25150e-06
 Reference value :  6.25325e-06
 Reference value :  6.25378e-06
 Reference value :  6.25497e-06
 Reference value :  6.25647e-06
 Reference value :  6.26182e-06
 Reference value :  6.28640e-06
 Reference value :  6.48306e-06
 Reference value :  6.50003e-06
 Reference value :  6.50011e-06
 Reference value :  6.50022e-06
 Reference value :  6.50052e-06
 Reference value :  6.50131e-06
 Reference value :  6.50231e-06
 Reference value :  6.50333e-06
 Reference value :  6.50455e-06
 Reference value :  6.50638e-06
 Reference value :  6.50718e-06
 Reference value :  6.50889e-06
 Reference value :  6.51087e-06
 Reference value :  6.51875e-06
 Reference value :  6.58112e-06
 Reference value :  6.75011e-06
 Reference value :  6.75020e-06
 Reference value :  6.75026e-06
 Reference value :  6.75070e-06
 Reference value :  6.75150e-06
 Reference value :  6.75325e-06
 Reference value :  6.75436e-06
 Reference value :  6.75548e-06
 Reference value :  6.75710e-06
 Reference value :  6.76410e-06
 Reference value :  6.85017e-06
 Reference value :  7.00003e-06
 Reference value :  7.00012e-06
 Reference value :  7.00034e-06
 Reference value :  7.00131e-06
 Reference value :  7.00278e-06
 Reference value :  7.00390e-06
 Reference value :  7.00584e-06
 Reference value :  7.00836e-06
 Reference value :  7.00976e-06
 Reference value :  7.01278e-06
 Reference value :  7.01496e-06
 Reference value :  7.01716e-06
 Reference value :  7.02139e-06
 Reference value :  7.03940e-06
 Reference value :  7.15340e-06
 Reference value :  7.25011e-06
 Reference value :  7.25020e-06
 Reference value :  7.25026e-06
 Reference value :  7.25070e-06
 Reference value :  7.25150e-06
 Reference value :  7.25378e-06
 Reference value :  7.25559e-06
 Reference value :  7.26533e-06
 Reference value :  7.48332e-06
 Reference value :  7.50003e-06
 Reference value :  7.50011e-06
 Reference value :  7.50034e-06
 Reference value :  7.50131e-06
 Reference value :  7.50231e-06
 Reference value :  7.50333e-06
 Reference value :  7.50455e-06
 Reference value :  7.50639e-06
 Reference value :  7.50719e-06
 Reference value :  7.50889e-06
 Reference value :  7.51088e-06
 Reference value :  7.51875e-06
 Reference value :  7.58114e-06
 Reference value :  7.75011e-06
 Reference value :  7.75020e-06
 Reference value :  7.75026e-06
 Reference value :  7.75045e-06
 Reference value :  7.75101e-06
 Reference value :  7.75150e-06
 Reference value :  7.75251e-06
 Reference value :  7.75377e-06
 Reference value :  7.75489e-06
 Reference value :  7.75626e-06
 Reference value :  7.76409e-06
 Reference value :  7.94181e-06
 Reference value :  8.00003e-06
 Reference value :  8.00011e-06
 Reference value :  8.00034e-06
 Reference value :  8.00182e-06
 Reference value :  8.00332e-06
 Reference value :  8.00449e-06
 Reference value :  8.00584e-06
 Reference value :  8.00747e-06
 Reference value :  8.01026e-06
 Reference value :  8.02554e-06
 Reference value :  8.25010e-06
 Reference value :  8.25017e-06
 Reference value :  8.25026e-06
 Reference value :  8.25101e-06
 Reference value :  8.25251e-06
 Reference value :  8.25501e-06
 Reference value :  8.26021e-06
 Reference value :  8.41108e-06
 Reference value :  8.50000e-06
 Reference value :  8.50000e-06
 Reference value :  8.50000e-06
 Reference value :  8.50002e-06
 Reference value :  8.50010e-06
 Reference value :  8.50012e-06
 Reference value :  8.50027e-06
 Reference value :  8.50072e-06
 Reference value :  8.50172e-06
 Reference value :  8.50217e-06
 Reference value :  8.50323e-06
 Reference value :  8.50388e-06
 Reference value :  8.50499e-06
 Reference value :  8.50620e-06
 Reference value :  8.50997e-06
 Reference value :  8.52438e-06
 Reference value :  8.52891e-06
 Reference value :  8.53214e-06
 Reference value :  8.53445e-06
 Reference value :  8.53806e-06
 Reference value :  8.53957e-06
 Reference value :  8.54173e-06
 Reference value :  8.54617e-06
 Reference value :  8.55249e-06
 Reference value :  8.56021e-06
 Reference value :  8.57800e-06
 Reference value :  8.62220e-06
 Reference value :  8.72121e-06
 Reference value :  8.75011e-06
 Reference value :  8.75020e-06
 Reference value :  8.75026e-06
 Reference value :  8.75045e-06
 Reference value :  8.75101e-06
 Reference value :  8.75202e-06
 Reference value :  8.75324e-06
 Reference value :  8.75377e-06
 Reference value :  8.75496e-06
 Reference value :  8.75768e-06
 Reference value :  8.77214e-06
 Reference value :  8.97878e-06
 Reference value :  9.00007e-06
 Reference value :  9.00016e-06
 Reference value :  9.00052e-06
 Reference value :  9.00182e-06
 Reference value :  9.00332e-06
 Reference value :  9.00454e-06
 Reference value :  9.00761e-06
 Reference value :  9.01019e-06
 Reference value :  9.01335e-06
 Reference value :  9.01653e-06
 Reference value :  9.02627e-06
 Reference value :  9.05972e-06
 Reference value :  9.11795e-06
 Reference value :  9.14543e-06
 Reference value :  9.15797e-06
 Reference value :  9.17744e-06
 Reference value :  9.23492e-06
 Reference value :  9.25020e-06
 Reference value :  9.25045e-06
 Reference value :  9.25150e-06
 Reference value :  9.25325e-06
 Reference value :  9.25435e-06
 Reference value :  9.25546e-06
 Reference value :  9.25709e-06
 Reference value :  9.26011e-06
 Reference value :  9.27263e-06
 Reference value :  9.35791e-06
 Reference value :  9.50003e-06
 Reference value :  9.50012e-06
 Reference value :  9.50034e-06
 Reference value :  9.50131e-06
 Reference value :  9.50230e-06
 Reference value :  9.50334e-06
 Reference value :  9.50456e-06
 Reference value :  9.50576e-06
 Reference value :  9.50818e-06
 Reference value :  9.51148e-06
 Reference value :  9.51351e-06
 Reference value :  9.51535e-06
 Reference value :  9.51736e-06
 Reference value :  9.51978e-06
 Reference value :  9.52798e-06
 Reference value :  9.55885e-06
 Reference value :  9.58683e-06
 Reference value :  9.59756e-06
 Reference value :  9.60258e-06
 Reference value :  9.60718e-06
 Reference value :  9.62475e-06
 Reference value :  9.67502e-06
 Reference value :  9.75011e-06
 Reference value :  9.75020e-06
 Reference value :  9.75026e-06
 Reference value :  9.75045e-06
 Reference value :  9.75101e-06
 Reference value :  9.75150e-06
 Reference value :  9.75251e-06
 Reference value :  9.75378e-06
 Reference value :  9.75559e-06
 Reference value :  9.76534e-06
 Reference value :  9.98290e-06
 Reference value :  1.00001e-05
 Reference value :  1.00002e-05
 Reference value :  1.00009e-05
 Reference value :  1.00023e-05
 Reference value :  1.00033e-05
 Reference value :  1.00055e-05
 Reference value :  1.00072e-05
 Reference value :  1.00089e-05
 Reference value :  1.00109e-05
 Reference value :  1.00187e-05
 Reference value :  1.00811e-05
 Reference value :  1.02501e-05
 Reference value :  1.02502e-05
 Reference value :  1.02503e-05
 Reference value :  1.02507e-05
 Reference value :  1.02515e-05
 Reference value :  1.02525e-05
 Reference value :  1.02538e-05
 Reference value :  1.02549e-05
 Reference value :  1.02563e-05
 Reference value :  1.02609e-05
 Reference value :  1.02814e-05
 Reference value :  1.04424e-05
 Reference value :  1.05000e-05
 Reference value :  1.05001e-05
 Reference value :  1.05002e-05
 Reference value :  1.05009e-05
 Reference value :  1.05018e-05
 Reference value :  1.05028e-05
 Reference value :  1.05033e-05
 Reference value :  1.05045e-05
 Reference value :  1.05058e-05
 Reference value :  1.05084e-05
 Reference value :  1.05098e-05
 Reference value :  1.05128e-05
 Reference value :  1.05150e-05
 Reference value :  1.05172e-05
 Reference value :  1.05214e-05
 Reference value :  1.05549e-05
 Reference value :  1.07501e-05
 Reference value :  1.07502e-05
 Reference value :  1.07504e-05
 Reference value :  1.07515e-05
 Reference value :  1.07533e-05
 Reference value :  1.07550e-05
 Reference value :  1.07593e-05
 Reference value :  1.08709e-05
 Reference value :  1.10001e-05
 Reference value :  1.10002e-05
 Reference value :  1.10005e-05
 Reference value :  1.10013e-05
 Reference value :  1.10023e-05
 Reference value :  1.10033e-05
 Reference value :  1.10046e-05
 Reference value :  1.10064e-05
 Reference value :  1.10081e-05
 Reference value :  1.10109e-05
 Reference value :  1.10455e-05
 Reference value :  1.12501e-05
 Reference value :  1.12502e-05
 Reference value :  1.12504e-05
 Reference value :  1.12515e-05
 Reference value :  1.12533e-05
 Reference value :  1.12544e-05
 Reference value :  1.12555e-05
 Reference value :  1.12588e-05
 Reference value :  1.12814e-05
 Reference value :  1.15000e-05
 Reference value :  1.15001e-05
 Reference value :  1.15002e-05
 Reference value :  1.15013e-05
 Reference value :  1.15033e-05
 Reference value :  1.15058e-05
 Reference value :  1.15098e-05
 Reference value :  1.15128e-05
 Reference value :  1.15150e-05
 Reference value :  1.15182e-05
 Reference value :  1.15319e-05
 Reference value :  1.15900e-05
 Reference value :  1.16159e-05
 Reference value :  1.16338e-05
 Reference value :  1.16812e-05
 Reference value :  1.16903e-05
 Reference value :  1.17020e-05
 Reference value :  1.17239e-05
 Reference value :  1.17501e-05
 Reference value :  1.17503e-05
 Reference value :  1.17510e-05
 Reference value :  1.17525e-05
 Reference value :  1.17538e-05
 Reference value :  1.17550e-05
 Reference value :  1.17593e-05
 Reference value :  1.18146e-05
 Reference value :  1.20000e-05
 Reference value :  1.20002e-05
 Reference value :  1.20009e-05
 Reference value :  1.20023e-05
 Reference value :  1.20039e-05
 Reference value :  1.20064e-05
 Reference value :  1.20081e-05
 Reference value :  1.20098e-05
 Reference value :  1.20188e-05
 Reference value :  1.22501e-05
 Reference value :  1.22502e-05
 Reference value :  1.22504e-05
 Reference value :  1.22515e-05
 Reference value :  1.22533e-05
 Reference value :  1.22544e-05
 Reference value :  1.22563e-05
 Reference value :  1.22641e-05
 Reference value :  1.24426e-05
 Reference value :  1.25001e-05
 Reference value :  1.25002e-05
 Reference value :  1.25009e-05
 Reference value :  1.25023e-05
 Reference value :  1.25033e-05
 Reference value :  1.25052e-05
 Reference value :  1.25065e-05
 Reference value :  1.25098e-05
 Reference value :  1.25128e-05
 Reference value :  1.25150e-05
 Reference value :  1.25172e-05
 Reference value :  1.25214e-05
 Reference value :  1.25307e-05
 Reference value :  1.25411e-05
 Reference value :  1.25489e-05
 Reference value :  1.25564e-05
 Reference value :  1.25724e-05
 Reference value :  1.25988e-05
 Reference value :  1.27501e-05
 Reference value :  1.27502e-05
 Reference value :  1.27502e-05
 Reference value :  1.27504e-05
 Reference value :  1.27515e-05
 Reference value :  1.27525e-05
 Reference value :  1.27538e-05
 Reference value :  1.27549e-05
 Reference value :  1.27578e-05
 Reference value :  1.27717e-05
 Reference value :  1.28625e-05
 Reference value :  1.30000e-05
 Reference value :  1.30001e-05
 Reference value :  1.30002e-05
 Reference value :  1.30009e-05
 Reference value :  1.30017e-05
 Reference value :  1.30032e-05
 Reference value :  1.30044e-05
 Reference value :  1.30060e-05
 Reference value :  1.30067e-05
 Reference value :  1.30084e-05
 Reference value :  1.30115e-05
 Reference value :  1.30247e-05
 Reference value :  1.31638e-05
 Reference value :  1.32501e-05
 Reference value :  1.32502e-05
 Reference value :  1.32503e-05
 Reference value :  1.32510e-05
 Reference value :  1.32520e-05
 Reference value :  1.32533e-05
 Reference value :  1.32544e-05
 Reference value :  1.32555e-05
 Reference value :  1.32571e-05
 Reference value :  1.32602e-05
 Reference value :  1.32731e-05
 Reference value :  1.33674e-05
 Reference value :  1.35000e-05
 Reference value :  1.35001e-05
 Reference value :  1.35002e-05
 Reference value :  1.35009e-05
 Reference value :  1.35023e-05
 Reference value :  1.35033e-05
 Reference value :  1.35052e-05
 Reference value :  1.35064e-05
 Reference value :  1.35093e-05
 Reference value :  1.35115e-05
 Reference value :  1.35135e-05
 Reference value :  1.35155e-05
 Reference value :  1.35188e-05
 Reference value :  1.35278e-05
 Reference value :  1.35403e-05
 Reference value :  1.35465e-05
 Reference value :  1.35582e-05
 Reference value :  1.36091e-05
 Reference value :  1.37422e-05
 Reference value :  1.37501e-05
 Reference value :  1.37502e-05
 Reference value :  1.37503e-05
 Reference value :  1.37507e-05
 Reference value :  1.37515e-05
 Reference value :  1.37533e-05
 Reference value :  1.37543e-05
 Reference value :  1.37556e-05
 Reference value :  1.37593e-05
 Reference value :  1.37718e-05
 Reference value :  1.38110e-05
 Reference value :  1.38600e-05
 Reference value :  1.40000e-05
 Reference value :  1.40001e-05
 Reference value :  1.40001e-05
 Reference value :  1.40003e-05
 Reference value :  1.40009e-05
 Reference value :  1.40017e-05
 Reference value :  1.40027e-05
 Reference value :  1.40038e-05
 Reference value :  1.40052e-05
 Reference value :  1.40067e-05
 Reference value :  1.40084e-05
 Reference value :  1.40115e-05
 Reference value :  1.40247e-05
 Reference value :  1.42501e-05
 Reference value :  1.42502e-05
 Reference value :  1.42503e-05
 Reference value :  1.42510e-05
 Reference value :  1.42520e-05
 Reference value :  1.42533e-05
 Reference value :  1.42544e-05
 Reference value :  1.42555e-05
 Reference value :  1.42579e-05
 Reference value :  1.42641e-05
 Reference value :  1.43195e-05
 Reference value :  1.45000e-05
 Reference value :  1.45002e-05
 Reference value :  1.45009e-05
 Reference value :  1.45028e-05
 Reference value :  1.45039e-05
 Reference value :  1.45058e-05
 Reference value :  1.45093e-05
 Reference value :  1.45115e-05
 Reference value :  1.45135e-05
 Reference value :  1.45164e-05
 Reference value :  1.45187e-05
 Reference value :  1.45216e-05
 Reference value :  1.45239e-05
 Reference value :  1.45282e-05
 Reference value :  1.46272e-05
 Reference value :  1.47502e-05
 Reference value :  1.47503e-05
 Reference value :  1.47510e-05
 Reference value :  1.47520e-05
 Reference value :  1.47538e-05
 Reference value :  1.47550e-05
 Reference value :  1.47577e-05
 Reference value :  1.47724e-05
 Reference value :  1.50000e-05
 Reference value :  1.50001e-05
 Reference value :  1.50002e-05
 Reference value :  1.50009e-05
 Reference value :  1.50023e-05
 Reference value :  1.50039e-05
 Reference value :  1.50064e-05
 Reference value :  1.50080e-05
 Reference value :  1.50098e-05
 Reference value :  1.50187e-05
 Reference value :  1.52501e-05
 Reference value :  1.52502e-05
 Reference value :  1.52504e-05
 Reference value :  1.52515e-05
 Reference value :  1.52532e-05
 Reference value :  1.52544e-05
 Reference value :  1.52555e-05
 Reference value :  1.52588e-05
 Reference value :  1.53502e-05
 Reference value :  1.55011e-05
 Reference value :  1.55043e-05
 Reference value :  1.55071e-05
 Reference value :  1.55105e-05
 Reference value :  1.55135e-05
 Reference value :  1.55156e-05
 Reference value :  1.55205e-05
 Reference value :  1.55341e-05
 Reference value :  1.57501e-05
 Reference value :  1.57502e-05
 Reference value :  1.57504e-05
 Reference value :  1.57515e-05
 Reference value :  1.57525e-05
 Reference value :  1.57537e-05
 Reference value :  1.57554e-05
 Reference value :  1.57611e-05
 Reference value :  1.59633e-05
 Reference value :  1.60001e-05
 Reference value :  1.60002e-05
 Reference value :  1.60009e-05
 Reference value :  1.60018e-05
 Reference value :  1.60028e-05
 Reference value :  1.60039e-05
 Reference value :  1.60064e-05
 Reference value :  1.60080e-05
 Reference value :  1.60098e-05
 Reference value :  1.60142e-05
 Reference value :  1.60455e-05
 Reference value :  1.62501e-05
 Reference value :  1.62502e-05
 Reference value :  1.62502e-05
 Reference value :  1.62504e-05
 Reference value :  1.62515e-05
 Reference value :  1.62532e-05
 Reference value :  1.62544e-05
 Reference value :  1.62555e-05
 Reference value :  1.62571e-05
 Reference value :  1.62641e-05
 Reference value :  1.63501e-05
 Reference value :  1.65000e-05
 Reference value :  1.65001e-05
 Reference value :  1.65003e-05
 Reference value :  1.65013e-05
 Reference value :  1.65028e-05
 Reference value :  1.65039e-05
 Reference value :  1.65052e-05
 Reference value :  1.65065e-05
 Reference value :  1.65084e-05
 Reference value :  1.65103e-05
 Reference value :  1.65256e-05
 Reference value :  1.67501e-05
 Reference value :  1.67502e-05
 Reference value :  1.67503e-05
 Reference value :  1.67507e-05
 Reference value :  1.67515e-05
 Reference value :  1.67532e-05
 Reference value :  1.67560e-05
 Reference value :  1.67585e-05
 Reference value :  1.67775e-05
 Reference value :  1.70000e-05
 Reference value :  1.70000e-05
 Reference value :  1.70000e-05
 Reference value :  1.70000e-05
 Reference value :  1.70001e-05
 Reference value :  1.70002e-05
 Reference value :  1.70012e-05
 Reference value :  1.70022e-05
 Reference value :  1.70032e-05
 Reference value :  1.70050e-05
 Reference value :  1.70062e-05
 Reference value :  1.70132e-05
 Reference value :  1.70244e-05
 Reference value :  1.70289e-05
 Reference value :  1.70321e-05
 Reference value :  1.70344e-05
 Reference value :  1.70379e-05
 Reference value :  1.70424e-05
 Reference value :  1.70487e-05
 Reference value :  1.70550e-05
 Reference value :  1.70704e-05
 Reference value :  1.71087e-05
 Reference value :  1.71876e-05
 Reference value :  1.72501e-05
 Reference value :  1.72502e-05
 Reference value :  1.72503e-05
 Reference value :  1.72510e-05
 Reference value :  1.72520e-05
 Reference value :  1.72532e-05
 Reference value :  1.72538e-05
 Reference value :  1.72550e-05
 Reference value :  1.72577e-05
 Reference value :  1.72722e-05
 Reference value :  1.73686e-05
 Reference value :  1.75000e-05
 Reference value :  1.75001e-05
 Reference value :  1.75002e-05
 Reference value :  1.75005e-05
 Reference value :  1.75013e-05
 Reference value :  1.75028e-05
 Reference value :  1.75039e-05
 Reference value :  1.75076e-05
 Reference value :  1.75133e-05
 Reference value :  1.75263e-05
 Reference value :  1.76186e-05
 Reference value :  1.76590e-05
 Reference value :  1.76869e-05
 Reference value :  1.77502e-05
 Reference value :  1.77503e-05
 Reference value :  1.77507e-05
 Reference value :  1.77515e-05
 Reference value :  1.77533e-05
 Reference value :  1.77544e-05
 Reference value :  1.77562e-05
 Reference value :  1.77601e-05
 Reference value :  1.77806e-05
 Reference value :  1.78580e-05
 Reference value :  1.80010e-05
 Reference value :  1.80041e-05
 Reference value :  1.80060e-05
 Reference value :  1.80088e-05
 Reference value :  1.80110e-05
 Reference value :  1.80133e-05
 Reference value :  1.80148e-05
 Reference value :  1.80168e-05
 Reference value :  1.80189e-05
 Reference value :  1.80243e-05
 Reference value :  1.80600e-05
 Reference value :  1.80873e-05
 Reference value :  1.81029e-05
 Reference value :  1.81122e-05
 Reference value :  1.81372e-05
 Reference value :  1.82453e-05
 Reference value :  1.82501e-05
 Reference value :  1.82502e-05
 Reference value :  1.82503e-05
 Reference value :  1.82507e-05
 Reference value :  1.82515e-05
 Reference value :  1.82525e-05
 Reference value :  1.82537e-05
 Reference value :  1.82549e-05
 Reference value :  1.82565e-05
 Reference value :  1.82591e-05
 Reference value :  1.82719e-05
 Reference value :  1.83704e-05
 Reference value :  1.85000e-05
 Reference value :  1.85001e-05
 Reference value :  1.85002e-05
 Reference value :  1.85009e-05
 Reference value :  1.85023e-05
 Reference value :  1.85033e-05
 Reference value :  1.85055e-05
 Reference value :  1.85072e-05
 Reference value :  1.85089e-05
 Reference value :  1.85109e-05
 Reference value :  1.85187e-05
 Reference value :  1.86523e-05
 Reference value :  1.87501e-05
 Reference value :  1.87502e-05
 Reference value :  1.87503e-05
 Reference value :  1.87510e-05
 Reference value :  1.87520e-05
 Reference value :  1.87533e-05
 Reference value :  1.87544e-05
 Reference value :  1.87555e-05
 Reference value :  1.87571e-05
 Reference value :  1.87641e-05
 Reference value :  1.88503e-05
 Reference value :  1.90000e-05
 Reference value :  1.90001e-05
 Reference value :  1.90002e-05
 Reference value :  1.90009e-05
 Reference value :  1.90028e-05
 Reference value :  1.90045e-05
 Reference value :  1.90065e-05
 Reference value :  1.90098e-05
 Reference value :  1.90139e-05
 Reference value :  1.90161e-05
 Reference value :  1.90182e-05
 Reference value :  1.90231e-05
 Reference value :  1.90549e-05
 Reference value :  1.92501e-05
 Reference value :  1.92502e-05
 Reference value :  1.92503e-05
 Reference value :  1.92507e-05
 Reference value :  1.92515e-05
 Reference value :  1.92525e-05
 Reference value :  1.92538e-05
 Reference value :  1.92550e-05
 Reference value :  1.92577e-05
 Reference value :  1.92724e-05
 Reference value :  1.95000e-05
 Reference value :  1.95003e-05
 Reference value :  1.95012e-05
 Reference value :  1.95018e-05
 Reference value :  1.95028e-05
 Reference value :  1.95045e-05
 Reference value :  1.95065e-05
 Reference value :  1.95084e-05
 Reference value :  1.95104e-05
 Reference value :  1.95128e-05
 Reference value :  1.95247e-05
 Reference value :  1.95830e-05
 Reference value :  1.97501e-05
 Reference value :  1.97502e-05
 Reference value :  1.97503e-05
 Reference value :  1.97504e-05
 Reference value :  1.97510e-05
 Reference value :  1.97515e-05
 Reference value :  1.97525e-05
 Reference value :  1.97538e-05
 Reference value :  1.97549e-05
 Reference value :  1.97563e-05
 Reference value :  1.97641e-05
 Reference value :  1.98042e-05
 Reference value :  2.00000e-05
 Reference value :  2.00001e-05
 Reference value :  2.00001e-05
 Reference value :  2.00002e-05
 Reference value :  2.00005e-05
 Reference value :  2.00013e-05
 Reference value :  2.00028e-05
 Reference value :  2.00039e-05
 Reference value :  2.00058e-05
 Reference value :  2.00084e-05
 Reference value :  2.00098e-05
 Reference value :  2.00128e-05
 Reference value :  2.00150e-05
 Reference value :  2.00172e-05
 Reference value :  2.00231e-05
 Reference value :  2.00549e-05
 Reference value :  2.00940e-05
 Reference value :  2.01232e-05
 Reference value :  2.01435e-05
 Reference value :  2.01713e-05
 Reference value :  2.01815e-05
 Reference value :  2.01966e-05
 Reference value :  2.02408e-05
 Reference value :  2.02502e-05
 Reference value :  2.02503e-05
 Reference value :  2.02510e-05
 Reference value :  2.02520e-05
 Reference value :  2.02533e-05
 Reference value :  2.02544e-05
 Reference value :  2.02556e-05
 Reference value :  2.02593e-05
 Reference value :  2.02865e-05
 Reference value :  2.05000e-05
 Reference value :  2.05003e-05
 Reference value :  2.05012e-05
 Reference value :  2.05018e-05
 Reference value :  2.05033e-05
 Reference value :  2.05045e-05
 Reference value :  2.05065e-05
 Reference value :  2.05084e-05
 Reference value :  2.05104e-05
 Reference value :  2.05128e-05
 Reference value :  2.05350e-05
 Reference value :  2.07501e-05
 Reference value :  2.07502e-05
 Reference value :  2.07510e-05
 Reference value :  2.07525e-05
 Reference value :  2.07538e-05
 Reference value :  2.07555e-05
 Reference value :  2.07571e-05
 Reference value :  2.07641e-05
 Reference value :  2.08039e-05
 Reference value :  2.10000e-05
 Reference value :  2.10001e-05
 Reference value :  2.10001e-05
 Reference value :  2.10002e-05
 Reference value :  2.10005e-05
 Reference value :  2.10013e-05
 Reference value :  2.10028e-05
 Reference value :  2.10039e-05
 Reference value :  2.10052e-05
 Reference value :  2.10065e-05
 Reference value :  2.10098e-05
 Reference value :  2.10128e-05
 Reference value :  2.10139e-05
 Reference value :  2.10161e-05
 Reference value :  2.10182e-05
 Reference value :  2.10214e-05
 Reference value :  2.10266e-05
 Reference value :  2.10364e-05
 Reference value :  2.10462e-05
 Reference value :  2.10534e-05
 Reference value :  2.10627e-05
 Reference value :  2.10736e-05
 Reference value :  2.11027e-05
 Reference value :  2.12003e-05
 Reference value :  2.12501e-05
 Reference value :  2.12502e-05
 Reference value :  2.12503e-05
 Reference value :  2.12507e-05
 Reference value :  2.12515e-05
 Reference value :  2.12525e-05
 Reference value :  2.12538e-05
 Reference value :  2.12549e-05
 Reference value :  2.12578e-05
 Reference value :  2.12717e-05
 Reference value :  2.14663e-05
 Reference value :  2.15000e-05
 Reference value :  2.15001e-05
 Reference value :  2.15002e-05
 Reference value :  2.15005e-05
 Reference value :  2.15013e-05
 Reference value :  2.15022e-05
 Reference value :  2.15032e-05
 Reference value :  2.15044e-05
 Reference value :  2.15052e-05
 Reference value :  2.15067e-05
 Reference value :  2.15084e-05
 Reference value :  2.15103e-05
 Reference value :  2.15115e-05
 Reference value :  2.15185e-05
 Reference value :  2.15539e-05
 Reference value :  2.17501e-05
 Reference value :  2.17502e-05
 Reference value :  2.17502e-05
 Reference value :  2.17503e-05
 Reference value :  2.17507e-05
 Reference value :  2.17515e-05
 Reference value :  2.17525e-05
 Reference value :  2.17538e-05
 Reference value :  2.17549e-05
 Reference value :  2.17563e-05
 Reference value :  2.17579e-05
 Reference value :  2.17617e-05
 Reference value :  2.17731e-05
 Reference value :  2.18197e-05
 Reference value :  2.20000e-05
 Reference value :  2.20007e-05
 Reference value :  2.20027e-05
 Reference value :  2.20040e-05
 Reference value :  2.20045e-05
 Reference value :  2.20056e-05
 Reference value :  2.20067e-05
 Reference value :  2.20085e-05
 Reference value :  2.20106e-05
 Reference value :  2.20127e-05
 Reference value :  2.20135e-05
 Reference value :  2.20154e-05
 Reference value :  2.20174e-05
 Reference value :  2.20219e-05
 Reference value :  2.20271e-05
 Reference value :  2.20348e-05
 Reference value :  2.20390e-05
 Reference value :  2.20449e-05
 Reference value :  2.20503e-05
 Reference value :  2.20791e-05
 Reference value :  2.22006e-05
 Reference value :  2.22501e-05
 Reference value :  2.22502e-05
 Reference value :  2.22503e-05
 Reference value :  2.22510e-05
 Reference value :  2.22520e-05
 Reference value :  2.22533e-05
 Reference value :  2.22544e-05
 Reference value :  2.22550e-05
 Reference value :  2.22577e-05
 Reference value :  2.22654e-05
 Reference value :  2.23142e-05
 Reference value :  2.23390e-05
 Reference value :  2.23748e-05
 Reference value :  2.24800e-05
 Reference value :  2.25000e-05
 Reference value :  2.25001e-05
 Reference value :  2.25003e-05
 Reference value :  2.25013e-05
 Reference value :  2.25027e-05
 Reference value :  2.25038e-05
 Reference value :  2.25060e-05
 Reference value :  2.25074e-05
 Reference value :  2.25093e-05
 Reference value :  2.25114e-05
 Reference value :  2.25251e-05
 Reference value :  2.27501e-05
 Reference value :  2.27502e-05
 Reference value :  2.27504e-05
 Reference value :  2.27515e-05
 Reference value :  2.27533e-05
 Reference value :  2.27544e-05
 Reference value :  2.27555e-05
 Reference value :  2.27563e-05
 Reference value :  2.27579e-05
 Reference value :  2.27616e-05
 Reference value :  2.27815e-05
 Reference value :  2.28670e-05
 Reference value :  2.30007e-05
 Reference value :  2.30028e-05
 Reference value :  2.30041e-05
 Reference value :  2.30046e-05
 Reference value :  2.30057e-05
 Reference value :  2.30078e-05
 Reference value :  2.30097e-05
 Reference value :  2.30116e-05
 Reference value :  2.30134e-05
 Reference value :  2.30162e-05
 Reference value :  2.30193e-05
 Reference value :  2.30202e-05
 Reference value :  2.30225e-05
 Reference value :  2.30273e-05
 Reference value :  2.30476e-05
 Reference value :  2.31301e-05
 Reference value :  2.32501e-05
 Reference value :  2.32502e-05
 Reference value :  2.32503e-05
 Reference value :  2.32507e-05
 Reference value :  2.32515e-05
 Reference value :  2.32525e-05
 Reference value :  2.32533e-05
 Reference value :  2.32538e-05
 Reference value :  2.32550e-05
 Reference value :  2.32593e-05
 Reference value :  2.33147e-05
 Reference value :  2.35000e-05
 Reference value :  2.35001e-05
 Reference value :  2.35003e-05
 Reference value :  2.35013e-05
 Reference value :  2.35028e-05
 Reference value :  2.35039e-05
 Reference value :  2.35055e-05
 Reference value :  2.35072e-05
 Reference value :  2.35089e-05
 Reference value :  2.35109e-05
 Reference value :  2.35276e-05
 Reference value :  2.37501e-05
 Reference value :  2.37502e-05
 Reference value :  2.37502e-05
 Reference value :  2.37504e-05
 Reference value :  2.37510e-05
 Reference value :  2.37520e-05
 Reference value :  2.37532e-05
 Reference value :  2.37538e-05
 Reference value :  2.37549e-05
 Reference value :  2.37563e-05
 Reference value :  2.37609e-05
 Reference value :  2.37813e-05
 Reference value :  2.39416e-05
 Reference value :  2.40000e-05
 Reference value :  2.40001e-05
 Reference value :  2.40002e-05
 Reference value :  2.40005e-05
 Reference value :  2.40013e-05
 Reference value :  2.40023e-05
 Reference value :  2.40033e-05
 Reference value :  2.40045e-05
 Reference value :  2.40058e-05
 Reference value :  2.40075e-05
 Reference value :  2.40098e-05
 Reference value :  2.40128e-05
 Reference value :  2.40150e-05
 Reference value :  2.40172e-05
 Reference value :  2.40195e-05
 Reference value :  2.40266e-05
 Reference value :  2.40538e-05
 Reference value :  2.41762e-05
 Reference value :  2.42501e-05
 Reference value :  2.42502e-05
 Reference value :  2.42503e-05
 Reference value :  2.42510e-05
 Reference value :  2.42520e-05
 Reference value :  2.42532e-05
 Reference value :  2.42538e-05
 Reference value :  2.42550e-05
 Reference value :  2.42577e-05
 Reference value :  2.42653e-05
 Reference value :  2.43146e-05
 Reference value :  2.45000e-05
 Reference value :  2.45001e-05
 Reference value :  2.45001e-05
 Reference value :  2.45003e-05
 Reference value :  2.45009e-05
 Reference value :  2.45023e-05
 Reference value :  2.45033e-05
 Reference value :  2.45046e-05
 Reference value :  2.45072e-05
 Reference value :  2.45089e-05
 Reference value :  2.45109e-05
 Reference value :  2.45277e-05
 Reference value :  2.47501e-05
 Reference value :  2.47503e-05
 Reference value :  2.47515e-05
 Reference value :  2.47532e-05
 Reference value :  2.47549e-05
 Reference value :  2.47563e-05
 Reference value :  2.47609e-05
 Reference value :  2.47813e-05
 Reference value :  2.49419e-05
 Reference value :  2.50000e-05
 Reference value :  2.50001e-05
 Reference value :  2.50003e-05
 Reference value :  2.50013e-05
 Reference value :  2.50028e-05
 Reference value :  2.50039e-05
 Reference value :  2.50052e-05
 Reference value :  2.50058e-05
 Reference value :  2.50075e-05
 Reference value :  2.50103e-05
 Reference value :  2.50255e-05
 Reference value :  2.52501e-05
 Reference value :  2.52502e-05
 Reference value :  2.52503e-05
 Reference value :  2.52504e-05
 Reference value :  2.52510e-05
 Reference value :  2.52520e-05
 Reference value :  2.52532e-05
 Reference value :  2.52550e-05
 Reference value :  2.52585e-05
 Reference value :  2.52680e-05
 Reference value :  2.54111e-05
 Reference value :  2.55000e-05
 Reference value :  2.55000e-05
 Reference value :  2.55000e-05
 Reference value :  2.55000e-05
 Reference value :  2.55001e-05
 Reference value :  2.55002e-05
 Reference value :  2.55007e-05
 Reference value :  2.55017e-05
 Reference value :  2.55027e-05
 Reference value :  2.55032e-05
 Reference value :  2.55045e-05
 Reference value :  2.55050e-05
 Reference value :  2.55062e-05
 Reference value :  2.55083e-05
 Reference value :  2.55190e-05
 Reference value :  2.55244e-05
 Reference value :  2.55289e-05
 Reference value :  2.55321e-05
 Reference value :  2.55346e-05
 Reference value :  2.55386e-05
 Reference value :  2.55419e-05
 Reference value :  2.55492e-05
 Reference value :  2.55561e-05
 Reference value :  2.55753e-05
 Reference value :  2.56041e-05
 Reference value :  2.56748e-05
 Reference value :  2.57501e-05
 Reference value :  2.57502e-05
 Reference value :  2.57503e-05
 Reference value :  2.57510e-05
 Reference value :  2.57520e-05
 Reference value :  2.57538e-05
 Reference value :  2.57550e-05
 Reference value :  2.57577e-05
 Reference value :  2.57722e-05
 Reference value :  2.59791e-05
 Reference value :  2.60000e-05
 Reference value :  2.60001e-05
 Reference value :  2.60003e-05
 Reference value :  2.60009e-05
 Reference value :  2.60023e-05
 Reference value :  2.60033e-05
 Reference value :  2.60055e-05
 Reference value :  2.60076e-05
 Reference value :  2.60114e-05
 Reference value :  2.60149e-05
 Reference value :  2.60215e-05
 Reference value :  2.60893e-05
 Reference value :  2.61480e-05
 Reference value :  2.61742e-05
 Reference value :  2.61898e-05
 Reference value :  2.62501e-05
 Reference value :  2.62502e-05
 Reference value :  2.62503e-05
 Reference value :  2.62515e-05
 Reference value :  2.62533e-05
 Reference value :  2.62544e-05
 Reference value :  2.62562e-05
 Reference value :  2.62616e-05
 Reference value :  2.63587e-05
 Reference value :  2.65010e-05
 Reference value :  2.65040e-05
 Reference value :  2.65059e-05
 Reference value :  2.65086e-05
 Reference value :  2.65121e-05
 Reference value :  2.65148e-05
 Reference value :  2.65168e-05
 Reference value :  2.65201e-05
 Reference value :  2.65444e-05
 Reference value :  2.65887e-05
 Reference value :  2.66139e-05
 Reference value :  2.67136e-05
 Reference value :  2.67502e-05
 Reference value :  2.67504e-05
 Reference value :  2.67515e-05
 Reference value :  2.67532e-05
 Reference value :  2.67549e-05
 Reference value :  2.67591e-05
 Reference value :  2.69808e-05
 Reference value :  2.70001e-05
 Reference value :  2.70009e-05
 Reference value :  2.70028e-05
 Reference value :  2.70046e-05
 Reference value :  2.70072e-05
 Reference value :  2.70089e-05
 Reference value :  2.70143e-05
 Reference value :  2.72501e-05
 Reference value :  2.72502e-05
 Reference value :  2.72507e-05
 Reference value :  2.72520e-05
 Reference value :  2.72538e-05
 Reference value :  2.72549e-05
 Reference value :  2.72563e-05
 Reference value :  2.72641e-05
 Reference value :  2.74426e-05
 Reference value :  2.75001e-05
 Reference value :  2.75003e-05
 Reference value :  2.75018e-05
 Reference value :  2.75033e-05
 Reference value :  2.75058e-05
 Reference value :  2.75098e-05
 Reference value :  2.75139e-05
 Reference value :  2.75172e-05
 Reference value :  2.75231e-05
 Reference value :  2.76129e-05
 Reference value :  2.77502e-05
 Reference value :  2.77503e-05
 Reference value :  2.77515e-05
 Reference value :  2.77533e-05
 Reference value :  2.77550e-05
 Reference value :  2.77618e-05
 Reference value :  2.79834e-05
 Reference value :  2.80003e-05
 Reference value :  2.80012e-05
 Reference value :  2.80028e-05
 Reference value :  2.80055e-05
 Reference value :  2.80084e-05
 Reference value :  2.80115e-05
 Reference value :  2.80520e-05
 Reference value :  2.82502e-05
 Reference value :  2.82504e-05
 Reference value :  2.82515e-05
 Reference value :  2.82532e-05
 Reference value :  2.82549e-05
 Reference value :  2.82571e-05
 Reference value :  2.82813e-05
 Reference value :  2.85000e-05
 Reference value :  2.85001e-05
 Reference value :  2.85002e-05
 Reference value :  2.85005e-05
 Reference value :  2.85018e-05
 Reference value :  2.85033e-05
 Reference value :  2.85052e-05
 Reference value :  2.85065e-05
 Reference value :  2.85098e-05
 Reference value :  2.85128e-05
 Reference value :  2.85150e-05
 Reference value :  2.85172e-05
 Reference value :  2.85214e-05
 Reference value :  2.85400e-05
 Reference value :  2.85940e-05
 Reference value :  2.86228e-05
 Reference value :  2.86449e-05
 Reference value :  2.86677e-05
 Reference value :  2.86774e-05
 Reference value :  2.86939e-05
 Reference value :  2.87320e-05
 Reference value :  2.87501e-05
 Reference value :  2.87502e-05
 Reference value :  2.87503e-05
 Reference value :  2.87510e-05
 Reference value :  2.87520e-05
 Reference value :  2.87533e-05
 Reference value :  2.87544e-05
 Reference value :  2.87556e-05
 Reference value :  2.87593e-05
 Reference value :  2.87865e-05
 Reference value :  2.90000e-05
 Reference value :  2.90003e-05
 Reference value :  2.90012e-05
 Reference value :  2.90018e-05
 Reference value :  2.90033e-05
 Reference value :  2.90055e-05
 Reference value :  2.90084e-05
 Reference value :  2.90104e-05
 Reference value :  2.90153e-05
 Reference value :  2.90521e-05
 Reference value :  2.92501e-05
 Reference value :  2.92502e-05
 Reference value :  2.92503e-05
 Reference value :  2.92507e-05
 Reference value :  2.92515e-05
 Reference value :  2.92532e-05
 Reference value :  2.92544e-05
 Reference value :  2.92555e-05
 Reference value :  2.92562e-05
 Reference value :  2.92608e-05
 Reference value :  2.93039e-05
 Reference value :  2.95000e-05
 Reference value :  2.95001e-05
 Reference value :  2.95001e-05
 Reference value :  2.95003e-05
 Reference value :  2.95013e-05
 Reference value :  2.95028e-05
 Reference value :  2.95039e-05
 Reference value :  2.95058e-05
 Reference value :  2.95084e-05
 Reference value :  2.95098e-05
 Reference value :  2.95128e-05
 Reference value :  2.95150e-05
 Reference value :  2.95172e-05
 Reference value :  2.95231e-05
 Reference value :  2.95414e-05
 Reference value :  2.95501e-05
 Reference value :  2.95586e-05
 Reference value :  2.95746e-05
 Reference value :  2.96224e-05
 Reference value :  2.97501e-05
 Reference value :  2.97502e-05
 Reference value :  2.97503e-05
 Reference value :  2.97510e-05
 Reference value :  2.97520e-05
 Reference value :  2.97533e-05
 Reference value :  2.97543e-05
 Reference value :  2.97556e-05
 Reference value :  2.97592e-05
 Reference value :  2.97846e-05
 Reference value :  2.99658e-05
 Reference value :  3.00000e-05
 Reference value :  3.00001e-05
 Reference value :  3.00002e-05
 Reference value :  3.00009e-05
 Reference value :  3.00017e-05
 Reference value :  3.00027e-05
 Reference value :  3.00032e-05
 Reference value :  3.00044e-05
 Reference value :  3.00052e-05
 Reference value :  3.00067e-05
 Reference value :  3.00084e-05
 Reference value :  3.00103e-05
 Reference value :  3.00114e-05
 Reference value :  3.00151e-05
 Reference value :  3.00355e-05
 Reference value :  3.01639e-05
 Reference value :  3.02501e-05
 Reference value :  3.02502e-05
 Reference value :  3.02502e-05
 Reference value :  3.02503e-05
 Reference value :  3.02507e-05
 Reference value :  3.02515e-05
 Reference value :  3.02525e-05
 Reference value :  3.02533e-05
 Reference value :  3.02538e-05
 Reference value :  3.02549e-05
 Reference value :  3.02563e-05
 Reference value :  3.02579e-05
 Reference value :  3.02602e-05
 Reference value :  3.02641e-05
 Reference value :  3.02731e-05
 Reference value :  3.02958e-05
 Reference value :  3.04604e-05
 Reference value :  3.05007e-05
 Reference value :  3.05027e-05
 Reference value :  3.05040e-05
 Reference value :  3.05045e-05
 Reference value :  3.05056e-05
 Reference value :  3.05067e-05
 Reference value :  3.05085e-05
 Reference value :  3.05106e-05
 Reference value :  3.05127e-05
 Reference value :  3.05135e-05
 Reference value :  3.05154e-05
 Reference value :  3.05174e-05
 Reference value :  3.05199e-05
 Reference value :  3.05271e-05
 Reference value :  3.05343e-05
 Reference value :  3.05383e-05
 Reference value :  3.05412e-05
 Reference value :  3.05466e-05
 Reference value :  3.05596e-05
 Reference value :  3.05953e-05
 Reference value :  3.07027e-05
 Reference value :  3.07501e-05
 Reference value :  3.07502e-05
 Reference value :  3.07502e-05
 Reference value :  3.07504e-05
 Reference value :  3.07510e-05
 Reference value :  3.07515e-05
 Reference value :  3.07525e-05
 Reference value :  3.07538e-05
 Reference value :  3.07550e-05
 Reference value :  3.07577e-05
 Reference value :  3.07654e-05
 Reference value :  3.08147e-05
 Reference value :  3.09836e-05
 Reference value :  3.10000e-05
 Reference value :  3.10001e-05
 Reference value :  3.10005e-05
 Reference value :  3.10018e-05
 Reference value :  3.10033e-05
 Reference value :  3.10055e-05
 Reference value :  3.10072e-05
 Reference value :  3.10098e-05
 Reference value :  3.10276e-05
 Reference value :  3.12501e-05
 Reference value :  3.12502e-05
 Reference value :  3.12504e-05
 Reference value :  3.12515e-05
 Reference value :  3.12533e-05
 Reference value :  3.12543e-05
 Reference value :  3.12562e-05
 Reference value :  3.12640e-05
 Reference value :  3.13355e-05
 Reference value :  3.14479e-05
 Reference value :  3.14947e-05
 Reference value :  3.15000e-05
 Reference value :  3.15001e-05
 Reference value :  3.15003e-05
 Reference value :  3.15013e-05
 Reference value :  3.15028e-05
 Reference value :  3.15039e-05
 Reference value :  3.15057e-05
 Reference value :  3.15081e-05
 Reference value :  3.15101e-05
 Reference value :  3.15122e-05
 Reference value :  3.15130e-05
 Reference value :  3.15146e-05
 Reference value :  3.15164e-05
 Reference value :  3.15198e-05
 Reference value :  3.15367e-05
 Reference value :  3.15914e-05
 Reference value :  3.17501e-05
 Reference value :  3.17502e-05
 Reference value :  3.17503e-05
 Reference value :  3.17510e-05
 Reference value :  3.17520e-05
 Reference value :  3.17532e-05
 Reference value :  3.17538e-05
 Reference value :  3.17550e-05
 Reference value :  3.17577e-05
 Reference value :  3.17654e-05
 Reference value :  3.18148e-05
 Reference value :  3.20000e-05
 Reference value :  3.20001e-05
 Reference value :  3.20002e-05
 Reference value :  3.20005e-05
 Reference value :  3.20018e-05
 Reference value :  3.20033e-05
 Reference value :  3.20055e-05
 Reference value :  3.20072e-05
 Reference value :  3.20089e-05
 Reference value :  3.20120e-05
 Reference value :  3.20810e-05
 Reference value :  3.22501e-05
 Reference value :  3.22502e-05
 Reference value :  3.22507e-05
 Reference value :  3.22515e-05
 Reference value :  3.22532e-05
 Reference value :  3.22544e-05
 Reference value :  3.22563e-05
 Reference value :  3.22641e-05
 Reference value :  3.23499e-05
 Reference value :  3.25000e-05
 Reference value :  3.25001e-05
 Reference value :  3.25002e-05
 Reference value :  3.25005e-05
 Reference value :  3.25013e-05
 Reference value :  3.25023e-05
 Reference value :  3.25033e-05
 Reference value :  3.25052e-05
 Reference value :  3.25065e-05
 Reference value :  3.25098e-05
 Reference value :  3.25128e-05
 Reference value :  3.25150e-05
 Reference value :  3.25172e-05
 Reference value :  3.25214e-05
 Reference value :  3.25394e-05
 Reference value :  3.26862e-05
 Reference value :  3.27501e-05
 Reference value :  3.27502e-05
 Reference value :  3.27503e-05
 Reference value :  3.27510e-05
 Reference value :  3.27520e-05
 Reference value :  3.27532e-05
 Reference value :  3.27538e-05
 Reference value :  3.27550e-05
 Reference value :  3.27577e-05
 Reference value :  3.27653e-05
 Reference value :  3.28708e-05
 Reference value :  3.30000e-05
 Reference value :  3.30001e-05
 Reference value :  3.30003e-05
 Reference value :  3.30009e-05
 Reference value :  3.30023e-05
 Reference value :  3.30033e-05
 Reference value :  3.30046e-05
 Reference value :  3.30064e-05
 Reference value :  3.30072e-05
 Reference value :  3.30089e-05
 Reference value :  3.30109e-05
 Reference value :  3.30187e-05
 Reference value :  3.30811e-05
 Reference value :  3.32501e-05
 Reference value :  3.32502e-05
 Reference value :  3.32503e-05
 Reference value :  3.32510e-05
 Reference value :  3.32520e-05
 Reference value :  3.32532e-05
 Reference value :  3.32538e-05
 Reference value :  3.32549e-05
 Reference value :  3.32563e-05
 Reference value :  3.32588e-05
 Reference value :  3.32698e-05
 Reference value :  3.34419e-05
 Reference value :  3.35010e-05
 Reference value :  3.35040e-05
 Reference value :  3.35059e-05
 Reference value :  3.35076e-05
 Reference value :  3.35093e-05
 Reference value :  3.35114e-05
 Reference value :  3.35225e-05
 Reference value :  3.36224e-05
 Reference value :  3.37501e-05
 Reference value :  3.37502e-05
 Reference value :  3.37507e-05
 Reference value :  3.37515e-05
 Reference value :  3.37532e-05
 Reference value :  3.37549e-05
 Reference value :  3.37583e-05
 Reference value :  3.37750e-05
 Reference value :  3.38897e-05
 Reference value :  3.40000e-05
 Reference value :  3.40000e-05
 Reference value :  3.40000e-05
 Reference value :  3.40001e-05
 Reference value :  3.40001e-05
 Reference value :  3.40002e-05
 Reference value :  3.40007e-05
 Reference value :  3.40017e-05
 Reference value :  3.40027e-05
 Reference value :  3.40032e-05
 Reference value :  3.40045e-05
 Reference value :  3.40050e-05
 Reference value :  3.40062e-05
 Reference value :  3.40100e-05
 Reference value :  3.40244e-05
 Reference value :  3.40289e-05
 Reference value :  3.40321e-05
 Reference value :  3.40348e-05
 Reference value :  3.40390e-05
 Reference value :  3.40443e-05
 Reference value :  3.40502e-05
 Reference value :  3.40579e-05
 Reference value :  3.40799e-05
 Reference value :  3.41129e-05
 Reference value :  3.41983e-05
 Reference value :  3.42501e-05
 Reference value :  3.42502e-05
 Reference value :  3.42503e-05
 Reference value :  3.42510e-05
 Reference value :  3.42520e-05
 Reference value :  3.42532e-05
 Reference value :  3.42538e-05
 Reference value :  3.42550e-05
 Reference value :  3.42577e-05
 Reference value :  3.42860e-05
 Reference value :  3.45000e-05
 Reference value :  3.45001e-05
 Reference value :  3.45002e-05
 Reference value :  3.45009e-05
 Reference value :  3.45028e-05
 Reference value :  3.45033e-05
 Reference value :  3.45045e-05
 Reference value :  3.45076e-05
 Reference value :  3.45114e-05
 Reference value :  3.45165e-05
 Reference value :  3.45597e-05
 Reference value :  3.46206e-05
 Reference value :  3.46642e-05
 Reference value :  3.46949e-05
 Reference value :  3.47501e-05
 Reference value :  3.47502e-05
 Reference value :  3.47504e-05
 Reference value :  3.47515e-05
 Reference value :  3.47533e-05
 Reference value :  3.47544e-05
 Reference value :  3.47562e-05
 Reference value :  3.47589e-05
 Reference value :  3.47669e-05
 Reference value :  3.48163e-05
 Reference value :  3.50000e-05
 Reference value :  3.50001e-05
 Reference value :  3.50005e-05
 Reference value :  3.50023e-05
 Reference value :  3.50039e-05
 Reference value :  3.50058e-05
 Reference value :  3.50082e-05
 Reference value :  3.50115e-05
 Reference value :  3.50135e-05
 Reference value :  3.50164e-05
 Reference value :  3.50216e-05
 Reference value :  3.50540e-05
 Reference value :  3.50810e-05
 Reference value :  3.50924e-05
 Reference value :  3.51000e-05
 Reference value :  3.51146e-05
 Reference value :  3.51443e-05
 Reference value :  3.52275e-05
 Reference value :  3.52501e-05
 Reference value :  3.52502e-05
 Reference value :  3.52503e-05
 Reference value :  3.52507e-05
 Reference value :  3.52515e-05
 Reference value :  3.52525e-05
 Reference value :  3.52538e-05
 Reference value :  3.52550e-05
 Reference value :  3.52565e-05
 Reference value :  3.52618e-05
 Reference value :  3.52864e-05
 Reference value :  3.54831e-05
 Reference value :  3.55000e-05
 Reference value :  3.55001e-05
 Reference value :  3.55002e-05
 Reference value :  3.55003e-05
 Reference value :  3.55009e-05
 Reference value :  3.55018e-05
 Reference value :  3.55028e-05
 Reference value :  3.55033e-05
 Reference value :  3.55046e-05
 Reference value :  3.55064e-05
 Reference value :  3.55072e-05
 Reference value :  3.55089e-05
 Reference value :  3.55109e-05
 Reference value :  3.55187e-05
 Reference value :  3.55811e-05
 Reference value :  3.57501e-05
 Reference value :  3.57502e-05
 Reference value :  3.57503e-05
 Reference value :  3.57507e-05
 Reference value :  3.57515e-05
 Reference value :  3.57533e-05
 Reference value :  3.57538e-05
 Reference value :  3.57549e-05
 Reference value :  3.57563e-05
 Reference value :  3.57588e-05
 Reference value :  3.57699e-05
 Reference value :  3.58504e-05
 Reference value :  3.60010e-05
 Reference value :  3.60039e-05
 Reference value :  3.60059e-05
 Reference value :  3.60076e-05
 Reference value :  3.60113e-05
 Reference value :  3.60125e-05
 Reference value :  3.60149e-05
 Reference value :  3.60170e-05
 Reference value :  3.60193e-05
 Reference value :  3.60226e-05
 Reference value :  3.60526e-05
 Reference value :  3.61634e-05
 Reference value :  3.62501e-05
 Reference value :  3.62502e-05
 Reference value :  3.62503e-05
 Reference value :  3.62507e-05
 Reference value :  3.62515e-05
 Reference value :  3.62525e-05
 Reference value :  3.62537e-05
 Reference value :  3.62549e-05
 Reference value :  3.62565e-05
 Reference value :  3.62615e-05
 Reference value :  3.62862e-05
 Reference value :  3.65000e-05
 Reference value :  3.65001e-05
 Reference value :  3.65001e-05
 Reference value :  3.65003e-05
 Reference value :  3.65009e-05
 Reference value :  3.65023e-05
 Reference value :  3.65033e-05
 Reference value :  3.65045e-05
 Reference value :  3.65064e-05
 Reference value :  3.65072e-05
 Reference value :  3.65089e-05
 Reference value :  3.65109e-05
 Reference value :  3.65187e-05
 Reference value :  3.65807e-05
 Reference value :  3.67501e-05
 Reference value :  3.67502e-05
 Reference value :  3.67503e-05
 Reference value :  3.67510e-05
 Reference value :  3.67520e-05
 Reference value :  3.67533e-05
 Reference value :  3.67544e-05
 Reference value :  3.67555e-05
 Reference value :  3.67571e-05
 Reference value :  3.67641e-05
 Reference value :  3.68497e-05
 Reference value :  3.70000e-05
 Reference value :  3.70001e-05
 Reference value :  3.70001e-05
 Reference value :  3.70002e-05
 Reference value :  3.70005e-05
 Reference value :  3.70013e-05
 Reference value :  3.70023e-05
 Reference value :  3.70033e-05
 Reference value :  3.70045e-05
 Reference value :  3.70058e-05
 Reference value :  3.70075e-05
 Reference value :  3.70098e-05
 Reference value :  3.70128e-05
 Reference value :  3.70139e-05
 Reference value :  3.70161e-05
 Reference value :  3.70182e-05
 Reference value :  3.70231e-05
 Reference value :  3.70400e-05
 Reference value :  3.70937e-05
 Reference value :  3.71238e-05
 Reference value :  3.71478e-05
 Reference value :  3.71568e-05
 Reference value :  3.71669e-05
 Reference value :  3.71822e-05
 Reference value :  3.72271e-05
 Reference value :  3.72501e-05
 Reference value :  3.72502e-05
 Reference value :  3.72503e-05
 Reference value :  3.72507e-05
 Reference value :  3.72515e-05
 Reference value :  3.72533e-05
 Reference value :  3.72538e-05
 Reference value :  3.72550e-05
 Reference value :  3.72577e-05
 Reference value :  3.72653e-05
 Reference value :  3.73146e-05
 Reference value :  3.75000e-05
 Reference value :  3.75001e-05
 Reference value :  3.75002e-05
 Reference value :  3.75005e-05
 Reference value :  3.75013e-05
 Reference value :  3.75028e-05
 Reference value :  3.75039e-05
 Reference value :  3.75055e-05
 Reference value :  3.75072e-05
 Reference value :  3.75081e-05
 Reference value :  3.75098e-05
 Reference value :  3.75120e-05
 Reference value :  3.75455e-05
 Reference value :  3.77501e-05
 Reference value :  3.77502e-05
 Reference value :  3.77503e-05
 Reference value :  3.77504e-05
 Reference value :  3.77510e-05
 Reference value :  3.77515e-05
 Reference value :  3.77525e-05
 Reference value :  3.77533e-05
 Reference value :  3.77538e-05
 Reference value :  3.77549e-05
 Reference value :  3.77563e-05
 Reference value :  3.77588e-05
 Reference value :  3.77699e-05
 Reference value :  3.78505e-05
 Reference value :  3.80000e-05
 Reference value :  3.80001e-05
 Reference value :  3.80002e-05
 Reference value :  3.80005e-05
 Reference value :  3.80013e-05
 Reference value :  3.80028e-05
 Reference value :  3.80039e-05
 Reference value :  3.80052e-05
 Reference value :  3.80065e-05
 Reference value :  3.80098e-05
 Reference value :  3.80139e-05
 Reference value :  3.80172e-05
 Reference value :  3.80266e-05
 Reference value :  3.80463e-05
 Reference value :  3.80584e-05
 Reference value :  3.80881e-05
 Reference value :  3.82501e-05
 Reference value :  3.82502e-05
 Reference value :  3.82510e-05
 Reference value :  3.82525e-05
 Reference value :  3.82543e-05
 Reference value :  3.82578e-05
 Reference value :  3.83106e-05
 Reference value :  3.85006e-05
 Reference value :  3.85023e-05
 Reference value :  3.85035e-05
 Reference value :  3.85047e-05
 Reference value :  3.85065e-05
 Reference value :  3.85085e-05
 Reference value :  3.85117e-05
 Reference value :  3.85253e-05
 Reference value :  3.86905e-05
 Reference value :  3.87501e-05
 Reference value :  3.87502e-05
 Reference value :  3.87504e-05
 Reference value :  3.87510e-05
 Reference value :  3.87520e-05
 Reference value :  3.87532e-05
 Reference value :  3.87538e-05
 Reference value :  3.87549e-05
 Reference value :  3.87562e-05
 Reference value :  3.87589e-05
 Reference value :  3.87639e-05
 Reference value :  3.87943e-05
 Reference value :  3.90000e-05
 Reference value :  3.90001e-05
 Reference value :  3.90003e-05
 Reference value :  3.90013e-05
 Reference value :  3.90028e-05
 Reference value :  3.90039e-05
 Reference value :  3.90058e-05
 Reference value :  3.90082e-05
 Reference value :  3.90115e-05
 Reference value :  3.90135e-05
 Reference value :  3.90164e-05
 Reference value :  3.90200e-05
 Reference value :  3.90281e-05
 Reference value :  3.90354e-05
 Reference value :  3.90380e-05
 Reference value :  3.90424e-05
 Reference value :  3.90710e-05
 Reference value :  3.92501e-05
 Reference value :  3.92502e-05
 Reference value :  3.92503e-05
 Reference value :  3.92510e-05
 Reference value :  3.92520e-05
 Reference value :  3.92533e-05
 Reference value :  3.92550e-05
 Reference value :  3.92618e-05
 Reference value :  3.94837e-05
 Reference value :  3.95001e-05
 Reference value :  3.95005e-05
 Reference value :  3.95018e-05
 Reference value :  3.95033e-05
 Reference value :  3.95055e-05
 Reference value :  3.95080e-05
 Reference value :  3.95120e-05
 Reference value :  3.97501e-05
 Reference value :  3.97502e-05
 Reference value :  3.97503e-05
 Reference value :  3.97507e-05
 Reference value :  3.97515e-05
 Reference value :  3.97533e-05
 Reference value :  3.97544e-05
 Reference value :  3.97563e-05
 Reference value :  3.97641e-05
 Reference value :  3.99419e-05
 Reference value :  4.00001e-05
 Reference value :  4.00003e-05
 Reference value :  4.00018e-05
 Reference value :  4.00033e-05
 Reference value :  4.00058e-05
 Reference value :  4.00098e-05
 Reference value :  4.00128e-05
 Reference value :  4.00161e-05
 Reference value :  4.00195e-05
 Reference value :  4.00319e-05
 Reference value :  4.00432e-05
 Reference value :  4.00607e-05
 Reference value :  4.01232e-05
 Reference value :  4.02501e-05
 Reference value :  4.02503e-05
 Reference value :  4.02507e-05
 Reference value :  4.02515e-05
 Reference value :  4.02533e-05
 Reference value :  4.02543e-05
 Reference value :  4.02556e-05
 Reference value :  4.02620e-05
 Reference value :  4.03626e-05
 Reference value :  4.05000e-05
 Reference value :  4.05001e-05
 Reference value :  4.05005e-05
 Reference value :  4.05017e-05
 Reference value :  4.05032e-05
 Reference value :  4.05052e-05
 Reference value :  4.05067e-05
 Reference value :  4.05084e-05
 Reference value :  4.05115e-05
 Reference value :  4.05355e-05
 Reference value :  4.07501e-05
 Reference value :  4.07502e-05
 Reference value :  4.07504e-05
 Reference value :  4.07515e-05
 Reference value :  4.07533e-05
 Reference value :  4.07538e-05
 Reference value :  4.07549e-05
 Reference value :  4.07563e-05
 Reference value :  4.07589e-05
 Reference value :  4.07641e-05
 Reference value :  4.07957e-05
 Reference value :  4.10007e-05
 Reference value :  4.10028e-05
 Reference value :  4.10041e-05
 Reference value :  4.10047e-05
 Reference value :  4.10058e-05
 Reference value :  4.10072e-05
 Reference value :  4.10104e-05
 Reference value :  4.10126e-05
 Reference value :  4.10145e-05
 Reference value :  4.10155e-05
 Reference value :  4.10174e-05
 Reference value :  4.10219e-05
 Reference value :  4.10430e-05
 Reference value :  4.11937e-05
 Reference value :  4.12502e-05
 Reference value :  4.12503e-05
 Reference value :  4.12507e-05
 Reference value :  4.12515e-05
 Reference value :  4.12532e-05
 Reference value :  4.12538e-05
 Reference value :  4.12549e-05
 Reference value :  4.12564e-05
 Reference value :  4.12618e-05
 Reference value :  4.12853e-05
 Reference value :  4.14730e-05
 Reference value :  4.15000e-05
 Reference value :  4.15001e-05
 Reference value :  4.15002e-05
 Reference value :  4.15005e-05
 Reference value :  4.15013e-05
 Reference value :  4.15022e-05
 Reference value :  4.15032e-05
 Reference value :  4.15044e-05
 Reference value :  4.15052e-05
 Reference value :  4.15067e-05
 Reference value :  4.15084e-05
 Reference value :  4.15103e-05
 Reference value :  4.15127e-05
 Reference value :  4.15249e-05
 Reference value :  4.15547e-05
 Reference value :  4.16673e-05
 Reference value :  4.17501e-05
 Reference value :  4.17502e-05
 Reference value :  4.17503e-05
 Reference value :  4.17507e-05
 Reference value :  4.17515e-05
 Reference value :  4.17525e-05
 Reference value :  4.17538e-05
 Reference value :  4.17549e-05
 Reference value :  4.17563e-05
 Reference value :  4.17579e-05
 Reference value :  4.17616e-05
 Reference value :  4.17730e-05
 Reference value :  4.17956e-05
 Reference value :  4.19564e-05
 Reference value :  4.20000e-05
 Reference value :  4.20001e-05
 Reference value :  4.20002e-05
 Reference value :  4.20003e-05
 Reference value :  4.20009e-05
 Reference value :  4.20018e-05
 Reference value :  4.20028e-05
 Reference value :  4.20033e-05
 Reference value :  4.20039e-05
 Reference value :  4.20046e-05
 Reference value :  4.20058e-05
 Reference value :  4.20073e-05
 Reference value :  4.20089e-05
 Reference value :  4.20104e-05
 Reference value :  4.20150e-05
 Reference value :  4.20197e-05
 Reference value :  4.20348e-05
 Reference value :  4.20570e-05
 Reference value :  4.20908e-05
 Reference value :  4.21342e-05
 Reference value :  4.22431e-05
 Reference value :  4.22502e-05
 Reference value :  4.22503e-05
 Reference value :  4.22507e-05
 Reference value :  4.22515e-05
 Reference value :  4.22532e-05
 Reference value :  4.22550e-05
 Reference value :  4.22585e-05
 Reference value :  4.22775e-05
 Reference value :  4.25000e-05
 Reference value :  4.25000e-05
 Reference value :  4.25000e-05
 Reference value :  4.25000e-05
 Reference value :  4.25001e-05
 Reference value :  4.25001e-05
 Reference value :  4.25003e-05
 Reference value :  4.25012e-05
 Reference value :  4.25027e-05
 Reference value :  4.25039e-05
 Reference value :  4.25050e-05
 Reference value :  4.25069e-05
 Reference value :  4.25190e-05
 Reference value :  4.25244e-05
 Reference value :  4.25288e-05
 Reference value :  4.25343e-05
 Reference value :  4.25380e-05
 Reference value :  4.25425e-05
 Reference value :  4.25511e-05
 Reference value :  4.25627e-05
 Reference value :  4.25958e-05
 Reference value :  4.26615e-05
 Reference value :  4.27501e-05
 Reference value :  4.27502e-05
 Reference value :  4.27504e-05
 Reference value :  4.27510e-05
 Reference value :  4.27520e-05
 Reference value :  4.27532e-05
 Reference value :  4.27544e-05
 Reference value :  4.27556e-05
 Reference value :  4.27593e-05
 Reference value :  4.27723e-05
 Reference value :  4.28695e-05
 Reference value :  4.30000e-05
 Reference value :  4.30001e-05
 Reference value :  4.30002e-05
 Reference value :  4.30009e-05
 Reference value :  4.30023e-05
 Reference value :  4.30033e-05
 Reference value :  4.30045e-05
 Reference value :  4.30076e-05
 Reference value :  4.30102e-05
 Reference value :  4.30133e-05
 Reference value :  4.30148e-05
 Reference value :  4.30214e-05
 Reference value :  4.30426e-05
 Reference value :  4.31204e-05
 Reference value :  4.31690e-05
 Reference value :  4.31958e-05
 Reference value :  4.32318e-05
 Reference value :  4.32501e-05
 Reference value :  4.32502e-05
 Reference value :  4.32502e-05
 Reference value :  4.32503e-05
 Reference value :  4.32507e-05
 Reference value :  4.32515e-05
 Reference value :  4.32525e-05
 Reference value :  4.32538e-05
 Reference value :  4.32549e-05
 Reference value :  4.32563e-05
 Reference value :  4.32579e-05
 Reference value :  4.32601e-05
 Reference value :  4.32670e-05
 Reference value :  4.32954e-05
 Reference value :  4.34552e-05
 Reference value :  4.35008e-05
 Reference value :  4.35023e-05
 Reference value :  4.35031e-05
 Reference value :  4.35045e-05
 Reference value :  4.35057e-05
 Reference value :  4.35070e-05
 Reference value :  4.35088e-05
 Reference value :  4.35107e-05
 Reference value :  4.35116e-05
 Reference value :  4.35137e-05
 Reference value :  4.35157e-05
 Reference value :  4.35179e-05
 Reference value :  4.35226e-05
 Reference value :  4.35440e-05
 Reference value :  4.35736e-05
 Reference value :  4.35862e-05
 Reference value :  4.35937e-05
 Reference value :  4.36089e-05
 Reference value :  4.36346e-05
 Reference value :  4.37501e-05
 Reference value :  4.37502e-05
 Reference value :  4.37504e-05
 Reference value :  4.37515e-05
 Reference value :  4.37532e-05
 Reference value :  4.37549e-05
 Reference value :  4.37592e-05
 Reference value :  4.38140e-05
 Reference value :  4.40000e-05
 Reference value :  4.40001e-05
 Reference value :  4.40003e-05
 Reference value :  4.40013e-05
 Reference value :  4.40028e-05
 Reference value :  4.40039e-05
 Reference value :  4.40064e-05
 Reference value :  4.40080e-05
 Reference value :  4.40098e-05
 Reference value :  4.40187e-05
 Reference value :  4.42501e-05
 Reference value :  4.42502e-05
 Reference value :  4.42504e-05
 Reference value :  4.42515e-05
 Reference value :  4.42533e-05
 Reference value :  4.42544e-05
 Reference value :  4.42563e-05
 Reference value :  4.42641e-05
 Reference value :  4.43502e-05
 Reference value :  4.45001e-05
 Reference value :  4.45002e-05
 Reference value :  4.45013e-05
 Reference value :  4.45033e-05
 Reference value :  4.45058e-05
 Reference value :  4.45098e-05
 Reference value :  4.45139e-05
 Reference value :  4.45172e-05
 Reference value :  4.45231e-05
 Reference value :  4.46130e-05
 Reference value :  4.47502e-05
 Reference value :  4.47503e-05
 Reference value :  4.47510e-05
 Reference value :  4.47520e-05
 Reference value :  4.47538e-05
 Reference value :  4.47556e-05
 Reference value :  4.47653e-05
 Reference value :  4.50000e-05
 Reference value :  4.50001e-05
 Reference value :  4.50003e-05
 Reference value :  4.50023e-05
 Reference value :  4.50039e-05
 Reference value :  4.50072e-05
 Reference value :  4.50109e-05
 Reference value :  4.51524e-05
 Reference value :  4.52502e-05
 Reference value :  4.52507e-05
 Reference value :  4.52525e-05
 Reference value :  4.52538e-05
 Reference value :  4.52555e-05
 Reference value :  4.52609e-05
 Reference value :  4.55000e-05
 Reference value :  4.55001e-05
 Reference value :  4.55009e-05
 Reference value :  4.55023e-05
 Reference value :  4.55039e-05
 Reference value :  4.55058e-05
 Reference value :  4.55098e-05
 Reference value :  4.55139e-05
 Reference value :  4.55172e-05
 Reference value :  4.55266e-05
 Reference value :  4.55953e-05
 Reference value :  4.56246e-05
 Reference value :  4.56516e-05
 Reference value :  4.56602e-05
 Reference value :  4.56769e-05
 Reference value :  4.57180e-05
 Reference value :  4.57501e-05
 Reference value :  4.57502e-05
 Reference value :  4.57503e-05
 Reference value :  4.57510e-05
 Reference value :  4.57520e-05
 Reference value :  4.57533e-05
 Reference value :  4.57544e-05
 Reference value :  4.57556e-05
 Reference value :  4.57593e-05
 Reference value :  4.57864e-05
 Reference value :  4.60003e-05
 Reference value :  4.60012e-05
 Reference value :  4.60028e-05
 Reference value :  4.60055e-05
 Reference value :  4.60084e-05
 Reference value :  4.60115e-05
 Reference value :  4.60519e-05
 Reference value :  4.62501e-05
 Reference value :  4.62502e-05
 Reference value :  4.62504e-05
 Reference value :  4.62515e-05
 Reference value :  4.62532e-05
 Reference value :  4.62549e-05
 Reference value :  4.62563e-05
 Reference value :  4.62641e-05
 Reference value :  4.64414e-05
 Reference value :  4.65001e-05
 Reference value :  4.65002e-05
 Reference value :  4.65005e-05
 Reference value :  4.65018e-05
 Reference value :  4.65033e-05
 Reference value :  4.65052e-05
 Reference value :  4.65065e-05
 Reference value :  4.65098e-05
 Reference value :  4.65139e-05
 Reference value :  4.65172e-05
 Reference value :  4.65231e-05
 Reference value :  4.65410e-05
 Reference value :  4.65540e-05
 Reference value :  4.65681e-05
 Reference value :  4.66468e-05
 Reference value :  4.67502e-05
 Reference value :  4.67503e-05
 Reference value :  4.67515e-05
 Reference value :  4.67533e-05
 Reference value :  4.67538e-05
 Reference value :  4.67549e-05
 Reference value :  4.67578e-05
 Reference value :  4.67717e-05
 Reference value :  4.69662e-05
 Reference value :  4.70001e-05
 Reference value :  4.70001e-05
 Reference value :  4.70002e-05
 Reference value :  4.70005e-05
 Reference value :  4.70013e-05
 Reference value :  4.70022e-05
 Reference value :  4.70032e-05
 Reference value :  4.70052e-05
 Reference value :  4.70067e-05
 Reference value :  4.70094e-05
 Reference value :  4.70127e-05
 Reference value :  4.70539e-05
 Reference value :  4.72501e-05
 Reference value :  4.72502e-05
 Reference value :  4.72504e-05
 Reference value :  4.72515e-05
 Reference value :  4.72533e-05
 Reference value :  4.72544e-05
 Reference value :  4.72555e-05
 Reference value :  4.72571e-05
 Reference value :  4.72602e-05
 Reference value :  4.72815e-05
 Reference value :  4.75000e-05
 Reference value :  4.75001e-05
 Reference value :  4.75002e-05
 Reference value :  4.75009e-05
 Reference value :  4.75023e-05
 Reference value :  4.75033e-05
 Reference value :  4.75052e-05
 Reference value :  4.75064e-05
 Reference value :  4.75093e-05
 Reference value :  4.75115e-05
 Reference value :  4.75135e-05
 Reference value :  4.75164e-05
 Reference value :  4.75188e-05
 Reference value :  4.75280e-05
 Reference value :  4.75353e-05
 Reference value :  4.75403e-05
 Reference value :  4.75485e-05
 Reference value :  4.75806e-05
 Reference value :  4.76710e-05
 Reference value :  4.77501e-05
 Reference value :  4.77502e-05
 Reference value :  4.77503e-05
 Reference value :  4.77510e-05
 Reference value :  4.77520e-05
 Reference value :  4.77533e-05
 Reference value :  4.77538e-05
 Reference value :  4.77550e-05
 Reference value :  4.77577e-05
 Reference value :  4.77653e-05
 Reference value :  4.78145e-05
 Reference value :  4.80000e-05
 Reference value :  4.80001e-05
 Reference value :  4.80002e-05
 Reference value :  4.80005e-05
 Reference value :  4.80018e-05
 Reference value :  4.80033e-05
 Reference value :  4.80046e-05
 Reference value :  4.80064e-05
 Reference value :  4.80072e-05
 Reference value :  4.80089e-05
 Reference value :  4.80109e-05
 Reference value :  4.80277e-05
 Reference value :  4.82501e-05
 Reference value :  4.82502e-05
 Reference value :  4.82502e-05
 Reference value :  4.82504e-05
 Reference value :  4.82510e-05
 Reference value :  4.82515e-05
 Reference value :  4.82525e-05
 Reference value :  4.82538e-05
 Reference value :  4.82549e-05
 Reference value :  4.82563e-05
 Reference value :  4.82609e-05
 Reference value :  4.83043e-05
 Reference value :  4.85000e-05
 Reference value :  4.85001e-05
 Reference value :  4.85002e-05
 Reference value :  4.85005e-05
 Reference value :  4.85018e-05
 Reference value :  4.85028e-05
 Reference value :  4.85039e-05
 Reference value :  4.85052e-05
 Reference value :  4.85065e-05
 Reference value :  4.85098e-05
 Reference value :  4.85139e-05
 Reference value :  4.85161e-05
 Reference value :  4.85182e-05
 Reference value :  4.85214e-05
 Reference value :  4.85315e-05
 Reference value :  4.85365e-05
 Reference value :  4.85497e-05
 Reference value :  4.85599e-05
 Reference value :  4.85934e-05
[...]
 Reference value :  1.65443e-04
 Reference value :  1.65500e-04
 Reference value :  1.65500e-04
 Reference value :  1.65500e-04
 Reference value :  1.65501e-04
 Reference value :  1.65502e-04
 Reference value :  1.65503e-04
 Reference value :  1.65504e-04
 Reference value :  1.65506e-04
 Reference value :  1.65508e-04
 Reference value :  1.65510e-04
 Reference value :  1.65513e-04
 Reference value :  1.65515e-04
 Reference value :  1.65517e-04
 Reference value :  1.65519e-04
 Reference value :  1.65527e-04
 Reference value :  1.65544e-04
 Reference value :  1.65556e-04
 Reference value :  1.65574e-04
 Reference value :  1.65608e-04
 Reference value :  1.65683e-04
 Reference value :  1.65750e-04
 Reference value :  1.65750e-04
 Reference value :  1.65750e-04
 Reference value :  1.65751e-04
 Reference value :  1.65752e-04
 Reference value :  1.65753e-04
 Reference value :  1.65754e-04
 Reference value :  1.65755e-04
 Reference value :  1.65758e-04
 Reference value :  1.65765e-04
 Reference value :  1.65811e-04
 Reference value :  1.66000e-04
 Reference value :  1.66000e-04
 Reference value :  1.66000e-04
 Reference value :  1.66000e-04
 Reference value :  1.66001e-04
 Reference value :  1.66002e-04
 Reference value :  1.66003e-04
 Reference value :  1.66005e-04
 Reference value :  1.66007e-04
 Reference value :  1.66009e-04
 Reference value :  1.66011e-04
 Reference value :  1.66036e-04
 Reference value :  1.66250e-04
 Reference value :  1.66250e-04
 Reference value :  1.66251e-04
 Reference value :  1.66252e-04
 Reference value :  1.66254e-04
 Reference value :  1.66255e-04
 Reference value :  1.66257e-04
 Reference value :  1.66262e-04
 Reference value :  1.66296e-04
 Reference value :  1.66500e-04
 Reference value :  1.66500e-04
 Reference value :  1.66500e-04
 Reference value :  1.66501e-04
 Reference value :  1.66503e-04
 Reference value :  1.66505e-04
 Reference value :  1.66506e-04
 Reference value :  1.66508e-04
 Reference value :  1.66511e-04
 Reference value :  1.66514e-04
 Reference value :  1.66516e-04
 Reference value :  1.66518e-04
 Reference value :  1.66532e-04
 Reference value :  1.66550e-04
 Reference value :  1.66680e-04
 Reference value :  1.66750e-04
 Reference value :  1.66750e-04
 Reference value :  1.66751e-04
 Reference value :  1.66753e-04
 Reference value :  1.66754e-04
 Reference value :  1.66755e-04
 Reference value :  1.66758e-04
 Reference value :  1.66772e-04
 Reference value :  1.66983e-04
 Reference value :  1.67000e-04
 Reference value :  1.67000e-04
 Reference value :  1.67001e-04
 Reference value :  1.67001e-04
 Reference value :  1.67003e-04
 Reference value :  1.67004e-04
 Reference value :  1.67005e-04
 Reference value :  1.67007e-04
 Reference value :  1.67009e-04
 Reference value :  1.67012e-04
 Reference value :  1.67045e-04
 Reference value :  1.67250e-04
 Reference value :  1.67250e-04
 Reference value :  1.67250e-04
 Reference value :  1.67252e-04
 Reference value :  1.67253e-04
 Reference value :  1.67254e-04
 Reference value :  1.67256e-04
 Reference value :  1.67270e-04
 Reference value :  1.67500e-04
 Reference value :  1.67500e-04
 Reference value :  1.67500e-04
 Reference value :  1.67501e-04
 Reference value :  1.67502e-04
 Reference value :  1.67504e-04
 Reference value :  1.67506e-04
 Reference value :  1.67510e-04
 Reference value :  1.67513e-04
 Reference value :  1.67515e-04
 Reference value :  1.67517e-04
 Reference value :  1.67521e-04
 Reference value :  1.67532e-04
 Reference value :  1.67581e-04
 Reference value :  1.67750e-04
 Reference value :  1.67750e-04
 Reference value :  1.67750e-04
 Reference value :  1.67750e-04
 Reference value :  1.67752e-04
 Reference value :  1.67753e-04
 Reference value :  1.67754e-04
 Reference value :  1.67755e-04
 Reference value :  1.67758e-04
 Reference value :  1.67772e-04
 Reference value :  1.67871e-04
 Reference value :  1.68000e-04
 Reference value :  1.68000e-04
 Reference value :  1.68000e-04
 Reference value :  1.68001e-04
 Reference value :  1.68002e-04
 Reference value :  1.68003e-04
 Reference value :  1.68005e-04
 Reference value :  1.68006e-04
 Reference value :  1.68007e-04
 Reference value :  1.68009e-04
 Reference value :  1.68011e-04
 Reference value :  1.68019e-04
 Reference value :  1.68081e-04
 Reference value :  1.68250e-04
 Reference value :  1.68250e-04
 Reference value :  1.68250e-04
 Reference value :  1.68251e-04
 Reference value :  1.68252e-04
 Reference value :  1.68253e-04
 Reference value :  1.68254e-04
 Reference value :  1.68255e-04
 Reference value :  1.68257e-04
 Reference value :  1.68281e-04
 Reference value :  1.68500e-04
 Reference value :  1.68500e-04
 Reference value :  1.68501e-04
 Reference value :  1.68502e-04
 Reference value :  1.68503e-04
 Reference value :  1.68506e-04
 Reference value :  1.68510e-04
 Reference value :  1.68514e-04
 Reference value :  1.68517e-04
 Reference value :  1.68527e-04
 Reference value :  1.68579e-04
 Reference value :  1.68750e-04
 Reference value :  1.68750e-04
 Reference value :  1.68750e-04
 Reference value :  1.68750e-04
 Reference value :  1.68751e-04
 Reference value :  1.68753e-04
 Reference value :  1.68754e-04
 Reference value :  1.68756e-04
 Reference value :  1.68759e-04
 Reference value :  1.68786e-04
 Reference value :  1.69000e-04
 Reference value :  1.69000e-04
 Reference value :  1.69000e-04
 Reference value :  1.69001e-04
 Reference value :  1.69002e-04
 Reference value :  1.69004e-04
 Reference value :  1.69006e-04
 Reference value :  1.69009e-04
 Reference value :  1.69011e-04
 Reference value :  1.69045e-04
 Reference value :  1.69250e-04
 Reference value :  1.69250e-04
 Reference value :  1.69250e-04
 Reference value :  1.69251e-04
 Reference value :  1.69251e-04
 Reference value :  1.69253e-04
 Reference value :  1.69254e-04
 Reference value :  1.69255e-04
 Reference value :  1.69256e-04
 Reference value :  1.69261e-04
 Reference value :  1.69304e-04
 Reference value :  1.69500e-04
 Reference value :  1.69500e-04
 Reference value :  1.69501e-04
 Reference value :  1.69503e-04
 Reference value :  1.69504e-04
 Reference value :  1.69506e-04
 Reference value :  1.69509e-04
 Reference value :  1.69518e-04
 Reference value :  1.69750e-04
 Reference value :  1.69750e-04
 Reference value :  1.69750e-04
 Reference value :  1.69751e-04
 Reference value :  1.69754e-04
 Reference value :  1.69759e-04
 Reference value :  1.69797e-04
 Reference value :  1.70000e-04
 Reference value :  1.70000e-04
 Reference value :  1.70000e-04
 Reference value :  1.70000e-04
 Reference value :  1.70000e-04
 Reference value :  1.70001e-04
 Reference value :  1.70002e-04
 Reference value :  1.70003e-04
 Reference value :  1.70004e-04
 Reference value :  1.70006e-04
 Reference value :  1.70008e-04
 Reference value :  1.70024e-04
 Reference value :  1.70029e-04
 Reference value :  1.70035e-04
 Reference value :  1.70039e-04
 Reference value :  1.70044e-04
 Reference value :  1.70053e-04
 Reference value :  1.70074e-04
 Reference value :  1.70121e-04
 Reference value :  1.70250e-04
 Reference value :  1.70250e-04
 Reference value :  1.70250e-04
 Reference value :  1.70251e-04
 Reference value :  1.70252e-04
 Reference value :  1.70253e-04
 Reference value :  1.70254e-04
 Reference value :  1.70256e-04
 Reference value :  1.70259e-04
 Reference value :  1.70286e-04
 Reference value :  1.70477e-04
 Reference value :  1.70500e-04
 Reference value :  1.70500e-04
 Reference value :  1.70500e-04
 Reference value :  1.70501e-04
 Reference value :  1.70502e-04
 Reference value :  1.70503e-04
 Reference value :  1.70505e-04
 Reference value :  1.70508e-04
 Reference value :  1.70511e-04
 Reference value :  1.70515e-04
 Reference value :  1.70526e-04
 Reference value :  1.70560e-04
 Reference value :  1.70696e-04
 Reference value :  1.70730e-04
 Reference value :  1.70750e-04
 Reference value :  1.70750e-04
 Reference value :  1.70750e-04
 Reference value :  1.70751e-04
 Reference value :  1.70752e-04
 Reference value :  1.70753e-04
 Reference value :  1.70754e-04
 Reference value :  1.70755e-04
 Reference value :  1.70756e-04
 Reference value :  1.70759e-04
 Reference value :  1.70764e-04
 Reference value :  1.70791e-04
 Reference value :  1.71000e-04
 Reference value :  1.71000e-04
 Reference value :  1.71000e-04
 Reference value :  1.71000e-04
 Reference value :  1.71001e-04
 Reference value :  1.71002e-04
 Reference value :  1.71003e-04
 Reference value :  1.71005e-04
 Reference value :  1.71006e-04
 Reference value :  1.71009e-04
 Reference value :  1.71011e-04
 Reference value :  1.71014e-04
 Reference value :  1.71015e-04
 Reference value :  1.71019e-04
 Reference value :  1.71024e-04
 Reference value :  1.71064e-04
 Reference value :  1.71082e-04
 Reference value :  1.71102e-04
 Reference value :  1.71207e-04
 Reference value :  1.71250e-04
 Reference value :  1.71250e-04
 Reference value :  1.71250e-04
 Reference value :  1.71251e-04
 Reference value :  1.71252e-04
 Reference value :  1.71253e-04
 Reference value :  1.71254e-04
 Reference value :  1.71255e-04
 Reference value :  1.71258e-04
 Reference value :  1.71272e-04
 Reference value :  1.71483e-04
 Reference value :  1.71500e-04
 Reference value :  1.71500e-04
 Reference value :  1.71500e-04
 Reference value :  1.71500e-04
 Reference value :  1.71501e-04
 Reference value :  1.71502e-04
 Reference value :  1.71503e-04
 Reference value :  1.71503e-04
 Reference value :  1.71505e-04
 Reference value :  1.71506e-04
 Reference value :  1.71507e-04
 Reference value :  1.71509e-04
 Reference value :  1.71511e-04
 Reference value :  1.71528e-04
 Reference value :  1.71750e-04
 Reference value :  1.71750e-04
 Reference value :  1.71750e-04
 Reference value :  1.71751e-04
 Reference value :  1.71752e-04
 Reference value :  1.71753e-04
 Reference value :  1.71754e-04
 Reference value :  1.71755e-04
 Reference value :  1.71756e-04
 Reference value :  1.71761e-04
 Reference value :  1.71804e-04
 Reference value :  1.72000e-04
 Reference value :  1.72000e-04
 Reference value :  1.72000e-04
 Reference value :  1.72001e-04
 Reference value :  1.72002e-04
 Reference value :  1.72003e-04
 Reference value :  1.72005e-04
 Reference value :  1.72007e-04
 Reference value :  1.72010e-04
 Reference value :  1.72013e-04
 Reference value :  1.72015e-04
 Reference value :  1.72017e-04
 Reference value :  1.72021e-04
 Reference value :  1.72040e-04
 Reference value :  1.72113e-04
 Reference value :  1.72250e-04
 Reference value :  1.72250e-04
 Reference value :  1.72250e-04
 Reference value :  1.72251e-04
 Reference value :  1.72252e-04
 Reference value :  1.72253e-04
 Reference value :  1.72254e-04
 Reference value :  1.72256e-04
 Reference value :  1.72259e-04
 Reference value :  1.72286e-04
 Reference value :  1.72484e-04
 Reference value :  1.72500e-04
 Reference value :  1.72500e-04
 Reference value :  1.72500e-04
 Reference value :  1.72501e-04
 Reference value :  1.72503e-04
 Reference value :  1.72504e-04
 Reference value :  1.72506e-04
 Reference value :  1.72508e-04
 Reference value :  1.72510e-04
 Reference value :  1.72514e-04
 Reference value :  1.72581e-04
 Reference value :  1.72750e-04
 Reference value :  1.72750e-04
 Reference value :  1.72751e-04
 Reference value :  1.72752e-04
 Reference value :  1.72753e-04
 Reference value :  1.72754e-04
 Reference value :  1.72755e-04
 Reference value :  1.72759e-04
 Reference value :  1.72781e-04
 Reference value :  1.73000e-04
 Reference value :  1.73000e-04
 Reference value :  1.73000e-04
 Reference value :  1.73001e-04
 Reference value :  1.73003e-04
 Reference value :  1.73004e-04
 Reference value :  1.73006e-04
 Reference value :  1.73010e-04
 Reference value :  1.73014e-04
 Reference value :  1.73017e-04
 Reference value :  1.73023e-04
 Reference value :  1.73077e-04
 Reference value :  1.73161e-04
 Reference value :  1.73250e-04
 Reference value :  1.73250e-04
 Reference value :  1.73251e-04
 Reference value :  1.73252e-04
 Reference value :  1.73253e-04
 Reference value :  1.73254e-04
 Reference value :  1.73255e-04
 Reference value :  1.73258e-04
 Reference value :  1.73272e-04
 Reference value :  1.73371e-04
 Reference value :  1.73500e-04
 Reference value :  1.73500e-04
 Reference value :  1.73500e-04
 Reference value :  1.73501e-04
 Reference value :  1.73503e-04
 Reference value :  1.73504e-04
 Reference value :  1.73506e-04
 Reference value :  1.73508e-04
 Reference value :  1.73511e-04
 Reference value :  1.73581e-04
 Reference value :  1.73750e-04
 Reference value :  1.73750e-04
 Reference value :  1.73751e-04
 Reference value :  1.73752e-04
 Reference value :  1.73753e-04
 Reference value :  1.73754e-04
 Reference value :  1.73755e-04
 Reference value :  1.73756e-04
 Reference value :  1.73761e-04
 Reference value :  1.73804e-04
 Reference value :  1.74000e-04
 Reference value :  1.74000e-04
 Reference value :  1.74000e-04
 Reference value :  1.74000e-04
 Reference value :  1.74001e-04
 Reference value :  1.74003e-04
 Reference value :  1.74004e-04
 Reference value :  1.74006e-04
 Reference value :  1.74008e-04
 Reference value :  1.74010e-04
 Reference value :  1.74013e-04
 Reference value :  1.74015e-04
 Reference value :  1.74017e-04
 Reference value :  1.74019e-04
 Reference value :  1.74027e-04
 Reference value :  1.74044e-04
 Reference value :  1.74057e-04
 Reference value :  1.74075e-04
 Reference value :  1.74110e-04
 Reference value :  1.74246e-04
 Reference value :  1.74250e-04
 Reference value :  1.74250e-04
 Reference value :  1.74250e-04
 Reference value :  1.74251e-04
 Reference value :  1.74253e-04
 Reference value :  1.74254e-04
 Reference value :  1.74255e-04
 Reference value :  1.74258e-04
 Reference value :  1.74285e-04
 Reference value :  1.74352e-04
 Reference value :  1.74482e-04
 Reference value :  1.74500e-04
 Reference value :  1.74500e-04
 Reference value :  1.74500e-04
 Reference value :  1.74501e-04
 Reference value :  1.74502e-04
 Reference value :  1.74503e-04
 Reference value :  1.74506e-04
 Reference value :  1.74507e-04
 Reference value :  1.74509e-04
 Reference value :  1.74513e-04
 Reference value :  1.74538e-04
 Reference value :  1.74658e-04
 Reference value :  1.74750e-04
 Reference value :  1.74750e-04
 Reference value :  1.74750e-04
 Reference value :  1.74751e-04
 Reference value :  1.74752e-04
 Reference value :  1.74753e-04
 Reference value :  1.74754e-04
 Reference value :  1.74755e-04
 Reference value :  1.74756e-04
 Reference value :  1.74761e-04
 Reference value :  1.74781e-04
 Reference value :  1.75000e-04
 Reference value :  1.75000e-04
 Reference value :  1.75000e-04
 Reference value :  1.75000e-04
 Reference value :  1.75001e-04
 Reference value :  1.75002e-04
 Reference value :  1.75003e-04
 Reference value :  1.75005e-04
 Reference value :  1.75007e-04
 Reference value :  1.75010e-04
 Reference value :  1.75014e-04
 Reference value :  1.75017e-04
 Reference value :  1.75023e-04
 Reference value :  1.75036e-04
 Reference value :  1.75046e-04
 Reference value :  1.75067e-04
 Reference value :  1.75129e-04
 Reference value :  1.75250e-04
 Reference value :  1.75250e-04
 Reference value :  1.75250e-04
 Reference value :  1.75252e-04
 Reference value :  1.75253e-04
 Reference value :  1.75254e-04
 Reference value :  1.75256e-04
 Reference value :  1.75259e-04
 Reference value :  1.75285e-04
 Reference value :  1.75467e-04
 Reference value :  1.75500e-04
 Reference value :  1.75500e-04
 Reference value :  1.75500e-04
 Reference value :  1.75501e-04
 Reference value :  1.75501e-04
 Reference value :  1.75502e-04
 Reference value :  1.75503e-04
 Reference value :  1.75504e-04
 Reference value :  1.75506e-04
 Reference value :  1.75507e-04
 Reference value :  1.75508e-04
 Reference value :  1.75510e-04
 Reference value :  1.75511e-04
 Reference value :  1.75519e-04
 Reference value :  1.75554e-04
 Reference value :  1.75750e-04
 Reference value :  1.75750e-04
 Reference value :  1.75750e-04
 Reference value :  1.75751e-04
 Reference value :  1.75752e-04
 Reference value :  1.75753e-04
 Reference value :  1.75754e-04
 Reference value :  1.75755e-04
 Reference value :  1.75756e-04
 Reference value :  1.75759e-04
 Reference value :  1.75764e-04
 Reference value :  1.75781e-04
 Reference value :  1.75960e-04
 Reference value :  1.76000e-04
 Reference value :  1.76000e-04
 Reference value :  1.76000e-04
 Reference value :  1.76001e-04
 Reference value :  1.76002e-04
 Reference value :  1.76003e-04
 Reference value :  1.76005e-04
 Reference value :  1.76006e-04
 Reference value :  1.76008e-04
 Reference value :  1.76010e-04
 Reference value :  1.76013e-04
 Reference value :  1.76014e-04
 Reference value :  1.76017e-04
 Reference value :  1.76020e-04
 Reference value :  1.76036e-04
 Reference value :  1.76092e-04
 Reference value :  1.76217e-04
 Reference value :  1.76250e-04
 Reference value :  1.76250e-04
 Reference value :  1.76251e-04
 Reference value :  1.76251e-04
 Reference value :  1.76253e-04
 Reference value :  1.76254e-04
 Reference value :  1.76255e-04
 Reference value :  1.76258e-04
 Reference value :  1.76272e-04
 Reference value :  1.76472e-04
 Reference value :  1.76500e-04
 Reference value :  1.76500e-04
 Reference value :  1.76501e-04
 Reference value :  1.76501e-04
 Reference value :  1.76502e-04
 Reference value :  1.76503e-04
 Reference value :  1.76505e-04
 Reference value :  1.76507e-04
 Reference value :  1.76508e-04
 Reference value :  1.76511e-04
 Reference value :  1.76525e-04
 Reference value :  1.76750e-04
 Reference value :  1.76750e-04
 Reference value :  1.76750e-04
 Reference value :  1.76751e-04
 Reference value :  1.76752e-04
 Reference value :  1.76753e-04
 Reference value :  1.76754e-04
 Reference value :  1.76755e-04
 Reference value :  1.76756e-04
 Reference value :  1.76759e-04
 Reference value :  1.76764e-04
 Reference value :  1.76781e-04
 Reference value :  1.76959e-04
 Reference value :  1.77000e-04
 Reference value :  1.77000e-04
 Reference value :  1.77000e-04
 Reference value :  1.77001e-04
 Reference value :  1.77002e-04
 Reference value :  1.77003e-04
 Reference value :  1.77005e-04
 Reference value :  1.77006e-04
 Reference value :  1.77007e-04
 Reference value :  1.77009e-04
 Reference value :  1.77011e-04
 Reference value :  1.77013e-04
 Reference value :  1.77015e-04
 Reference value :  1.77019e-04
 Reference value :  1.77024e-04
 Reference value :  1.77105e-04
 Reference value :  1.77250e-04
 Reference value :  1.77250e-04
 Reference value :  1.77251e-04
 Reference value :  1.77252e-04
 Reference value :  1.77254e-04
 Reference value :  1.77256e-04
 Reference value :  1.77262e-04
 Reference value :  1.77500e-04
 Reference value :  1.77500e-04
 Reference value :  1.77501e-04
 Reference value :  1.77502e-04
 Reference value :  1.77503e-04
 Reference value :  1.77505e-04
 Reference value :  1.77507e-04
 Reference value :  1.77508e-04
 Reference value :  1.77511e-04
 Reference value :  1.77536e-04
 Reference value :  1.77750e-04
 Reference value :  1.77750e-04
 Reference value :  1.77750e-04
 Reference value :  1.77751e-04
 Reference value :  1.77753e-04
 Reference value :  1.77754e-04
 Reference value :  1.77755e-04
 Reference value :  1.77758e-04
 Reference value :  1.77764e-04
 Reference value :  1.77819e-04
 Reference value :  1.78000e-04
 Reference value :  1.78000e-04
 Reference value :  1.78001e-04
 Reference value :  1.78003e-04
 Reference value :  1.78004e-04
 Reference value :  1.78006e-04
 Reference value :  1.78008e-04
 Reference value :  1.78010e-04
 Reference value :  1.78015e-04
 Reference value :  1.78028e-04
 Reference value :  1.78073e-04
 Reference value :  1.78131e-04
 Reference value :  1.78250e-04
 Reference value :  1.78250e-04
 Reference value :  1.78251e-04
 Reference value :  1.78253e-04
 Reference value :  1.78255e-04
 Reference value :  1.78260e-04
 Reference value :  1.78335e-04
No. of Data Rows : 25647
ngspice-44 done
