
Note: Compatibility modes selected: hs a


Circuit: ** sch_path: /home/samantha/cace/sar-adc-using-sky130-pdk/runs/run_2025-09-05_12-09-37/parameters/power/run_13/power_consumption.sch

option SCALE: Scale is set to 1e-06 for instance and model parameters
option SCALE: Scale is set to 1e-06 for instance and model parameters
option SCALE: Scale is set to 1e-06 for instance and model parameters
option SCALE: Scale is set to 1e-06 for instance and model parameters
Doing analysis at TEMP = 27.000000 and TNOM = 27.000000

Using KLU as Direct Linear Solver
 Reference value :  0.00000e+00
 Reference value :  1.00000e-12
 Reference value :  4.00000e-12
 Reference value :  1.60000e-11
 Reference value :  6.40000e-11
 Reference value :  1.06400e-10
 Reference value :  1.44800e-10
 Reference value :  2.98400e-10
 Reference value :  7.06783e-10
 Reference value :  1.38393e-09
 Reference value :  1.76318e-09
 Reference value :  2.17228e-09
 Reference value :  2.51396e-09
 Reference value :  2.90770e-09
 Reference value :  3.32437e-09
 Reference value :  3.73285e-09
 Reference value :  4.69863e-09
 Reference value :  6.71413e-09
 Reference value :  8.33206e-09
 Reference value :  9.32115e-09
 Reference value :  1.03352e-08
 Reference value :  1.10321e-08
 Reference value :  1.16832e-08
 Reference value :  1.23790e-08
 Reference value :  1.40421e-08
 Reference value :  1.65450e-08
 Reference value :  1.94153e-08
 Reference value :  2.06482e-08
 Reference value :  2.16097e-08
 Reference value :  2.24691e-08
 Reference value :  2.47079e-08
 Reference value :  2.87830e-08
 Reference value :  3.66537e-08
 Reference value :  4.63179e-08
 Reference value :  6.30046e-08
 Reference value :  7.98386e-08
 Reference value :  2.50100e-07
 Reference value :  2.50130e-07
 Reference value :  2.50207e-07
 Reference value :  2.50246e-07
 Reference value :  2.50382e-07
 Reference value :  2.50665e-07
 Reference value :  2.51260e-07
 Reference value :  2.52047e-07
 Reference value :  2.53280e-07
 Reference value :  2.54333e-07
 Reference value :  2.55580e-07
 Reference value :  2.57806e-07
 Reference value :  2.64993e-07
 Reference value :  2.84119e-07
 Reference value :  3.45877e-07
 Reference value :  5.00000e-07
 Reference value :  5.00030e-07
 Reference value :  5.00070e-07
 Reference value :  5.00108e-07
 Reference value :  5.00219e-07
 Reference value :  5.00513e-07
 Reference value :  5.00822e-07
 Reference value :  5.01575e-07
 Reference value :  5.02012e-07
 Reference value :  5.02908e-07
 Reference value :  5.04022e-07
 Reference value :  5.04762e-07
 Reference value :  5.05576e-07
 Reference value :  5.06705e-07
 Reference value :  5.07728e-07
 Reference value :  5.09968e-07
 Reference value :  5.12359e-07
 Reference value :  5.15725e-07
 Reference value :  5.21085e-07
 Reference value :  5.33703e-07
 Reference value :  5.76889e-07
 Reference value :  7.49632e-07
 Reference value :  7.50110e-07
 Reference value :  7.50170e-07
 Reference value :  7.50208e-07
 Reference value :  7.50256e-07
 Reference value :  7.50448e-07
 Reference value :  7.50819e-07
 Reference value :  7.51723e-07
 Reference value :  7.52148e-07
 Reference value :  7.52770e-07
 Reference value :  7.53305e-07
 Reference value :  7.53899e-07
 Reference value :  7.54506e-07
 Reference value :  7.55752e-07
 Reference value :  7.58072e-07
 Reference value :  7.63256e-07
 Reference value :  7.79944e-07
 Reference value :  8.46697e-07
 Reference value :  1.00000e-06
 Reference value :  1.00003e-06
 Reference value :  1.00010e-06
 Reference value :  1.00012e-06
 Reference value :  1.00022e-06
 Reference value :  1.00051e-06
 Reference value :  1.00082e-06
 Reference value :  1.00118e-06
 Reference value :  1.00158e-06
 Reference value :  1.00201e-06
 Reference value :  1.00242e-06
 Reference value :  1.00289e-06
 Reference value :  1.00396e-06
 Reference value :  1.00450e-06
 Reference value :  1.00499e-06
 Reference value :  1.00554e-06
 Reference value :  1.00714e-06
 Reference value :  1.01002e-06
 Reference value :  1.01121e-06
 Reference value :  1.01220e-06
 Reference value :  1.01314e-06
 Reference value :  1.01419e-06
 Reference value :  1.01513e-06
 Reference value :  1.01721e-06
 Reference value :  1.01876e-06
 Reference value :  1.02320e-06
 Reference value :  1.03496e-06
 Reference value :  1.06863e-06
 Reference value :  1.15145e-06
 Reference value :  1.19571e-06
 Reference value :  1.22191e-06
 Reference value :  1.23519e-06
 Reference value :  1.24530e-06
 Reference value :  1.25011e-06
 Reference value :  1.25017e-06
 Reference value :  1.25021e-06
 Reference value :  1.25026e-06
 Reference value :  1.25045e-06
 Reference value :  1.25082e-06
 Reference value :  1.25129e-06
 Reference value :  1.25172e-06
 Reference value :  1.25215e-06
 Reference value :  1.25277e-06
 Reference value :  1.25326e-06
 Reference value :  1.25382e-06
 Reference value :  1.25436e-06
 Reference value :  1.25578e-06
 Reference value :  1.25823e-06
 Reference value :  1.26351e-06
 Reference value :  1.28240e-06
 Reference value :  1.35777e-06
 Reference value :  1.50000e-06
 Reference value :  1.50003e-06
 Reference value :  1.50010e-06
 Reference value :  1.50012e-06
 Reference value :  1.50022e-06
 Reference value :  1.50051e-06
 Reference value :  1.50082e-06
 Reference value :  1.50154e-06
 Reference value :  1.50195e-06
 Reference value :  1.50282e-06
 Reference value :  1.50333e-06
 Reference value :  1.50465e-06
 Reference value :  1.50537e-06
 Reference value :  1.50595e-06
 Reference value :  1.50665e-06
 Reference value :  1.50740e-06
 Reference value :  1.50822e-06
 Reference value :  1.51025e-06
 Reference value :  1.51641e-06
 Reference value :  1.53972e-06
 Reference value :  1.63300e-06
 Reference value :  1.75011e-06
 Reference value :  1.75017e-06
 Reference value :  1.75021e-06
 Reference value :  1.75022e-06
 Reference value :  1.75032e-06
 Reference value :  1.75045e-06
 Reference value :  1.75082e-06
 Reference value :  1.75172e-06
 Reference value :  1.75277e-06
 Reference value :  1.75330e-06
 Reference value :  1.75450e-06
 Reference value :  1.75505e-06
 Reference value :  1.75575e-06
 Reference value :  1.75737e-06
 Reference value :  1.75950e-06
 Reference value :  1.76349e-06
 Reference value :  1.77349e-06
 Reference value :  1.81346e-06
 Reference value :  1.97336e-06
 Reference value :  2.00001e-06
 Reference value :  2.00003e-06
 Reference value :  2.00010e-06
 Reference value :  2.00012e-06
 Reference value :  2.00022e-06
 Reference value :  2.00051e-06
 Reference value :  2.00082e-06
 Reference value :  2.00158e-06
 Reference value :  2.00201e-06
 Reference value :  2.00242e-06
 Reference value :  2.00290e-06
 Reference value :  2.00342e-06
 Reference value :  2.00390e-06
 Reference value :  2.00440e-06
 Reference value :  2.00483e-06
 Reference value :  2.00533e-06
 Reference value :  2.00596e-06
 Reference value :  2.00665e-06
 Reference value :  2.00766e-06
 Reference value :  2.00847e-06
 Reference value :  2.00932e-06
 Reference value :  2.01016e-06
 Reference value :  2.01111e-06
 Reference value :  2.01188e-06
 Reference value :  2.01349e-06
 Reference value :  2.01436e-06
 Reference value :  2.01616e-06
 Reference value :  2.01712e-06
 Reference value :  2.01863e-06
 Reference value :  2.02323e-06
 Reference value :  2.03577e-06
 Reference value :  2.04308e-06
 Reference value :  2.05009e-06
 Reference value :  2.05422e-06
 Reference value :  2.06262e-06
 Reference value :  2.07281e-06
 Reference value :  2.09003e-06
 Reference value :  2.12295e-06
 Reference value :  2.18864e-06
 Reference value :  2.25010e-06
 Reference value :  2.25013e-06
 Reference value :  2.25020e-06
 Reference value :  2.25022e-06
 Reference value :  2.25032e-06
 Reference value :  2.25058e-06
 Reference value :  2.25129e-06
 Reference value :  2.25172e-06
 Reference value :  2.25277e-06
 Reference value :  2.25333e-06
 Reference value :  2.25454e-06
 Reference value :  2.25514e-06
 Reference value :  2.25716e-06
 Reference value :  2.26109e-06
 Reference value :  2.27296e-06
 Reference value :  2.31729e-06
 Reference value :  2.49461e-06
 Reference value :  2.50001e-06
 Reference value :  2.50007e-06
 Reference value :  2.50011e-06
 Reference value :  2.50016e-06
 Reference value :  2.50034e-06
 Reference value :  2.50082e-06
 Reference value :  2.50158e-06
 Reference value :  2.50242e-06
 Reference value :  2.50290e-06
 Reference value :  2.50342e-06
 Reference value :  2.50399e-06
 Reference value :  2.50474e-06
 Reference value :  2.50619e-06
 Reference value :  2.50692e-06
 Reference value :  2.50766e-06
 Reference value :  2.50943e-06
 Reference value :  2.51255e-06
 Reference value :  2.52280e-06
 Reference value :  2.55876e-06
 Reference value :  2.69705e-06
 Reference value :  2.75011e-06
 Reference value :  2.75017e-06
 Reference value :  2.75021e-06
 Reference value :  2.75026e-06
 Reference value :  2.75045e-06
 Reference value :  2.75058e-06
 Reference value :  2.75129e-06
 Reference value :  2.75172e-06
 Reference value :  2.75277e-06
 Reference value :  2.75331e-06
 Reference value :  2.75445e-06
 Reference value :  2.75571e-06
 Reference value :  2.75804e-06
 Reference value :  2.76314e-06
 Reference value :  2.77932e-06
 Reference value :  2.84405e-06
 Reference value :  3.00000e-06
 Reference value :  3.00003e-06
 Reference value :  3.00010e-06
 Reference value :  3.00012e-06
 Reference value :  3.00022e-06
 Reference value :  3.00051e-06
 Reference value :  3.00082e-06
 Reference value :  3.00118e-06
 Reference value :  3.00158e-06
 Reference value :  3.00242e-06
 Reference value :  3.00289e-06
 Reference value :  3.00396e-06
 Reference value :  3.00500e-06
 Reference value :  3.00637e-06
 Reference value :  3.00715e-06
 Reference value :  3.00864e-06
 Reference value :  3.01002e-06
 Reference value :  3.01122e-06
 Reference value :  3.01220e-06
 Reference value :  3.01314e-06
 Reference value :  3.01512e-06
 Reference value :  3.01720e-06
 Reference value :  3.02036e-06
 Reference value :  3.02778e-06
 Reference value :  3.03492e-06
 Reference value :  3.06862e-06
 Reference value :  3.09109e-06
 Reference value :  3.11744e-06
 Reference value :  3.13893e-06
 Reference value :  3.19662e-06
 Reference value :  3.25010e-06
 Reference value :  3.25013e-06
 Reference value :  3.25020e-06
 Reference value :  3.25022e-06
 Reference value :  3.25032e-06
 Reference value :  3.25058e-06
 Reference value :  3.25129e-06
 Reference value :  3.25172e-06
 Reference value :  3.25277e-06
 Reference value :  3.25333e-06
 Reference value :  3.25454e-06
 Reference value :  3.25607e-06
 Reference value :  3.25876e-06
 Reference value :  3.26504e-06
 Reference value :  3.28762e-06
 Reference value :  3.37556e-06
 Reference value :  3.50000e-06
 Reference value :  3.50003e-06
 Reference value :  3.50010e-06
 Reference value :  3.50012e-06
 Reference value :  3.50022e-06
 Reference value :  3.50034e-06
 Reference value :  3.50051e-06
 Reference value :  3.50082e-06
 Reference value :  3.50118e-06
 Reference value :  3.50158e-06
 Reference value :  3.50201e-06
 Reference value :  3.50290e-06
 Reference value :  3.50342e-06
 Reference value :  3.50399e-06
 Reference value :  3.50475e-06
 Reference value :  3.50554e-06
 Reference value :  3.50619e-06
 Reference value :  3.50692e-06
 Reference value :  3.50766e-06
 Reference value :  3.50943e-06
 Reference value :  3.51256e-06
 Reference value :  3.52267e-06
 Reference value :  3.55782e-06
 Reference value :  3.69248e-06
 Reference value :  3.75011e-06
 Reference value :  3.75017e-06
 Reference value :  3.75021e-06
 Reference value :  3.75026e-06
 Reference value :  3.75045e-06
 Reference value :  3.75058e-06
 Reference value :  3.75129e-06
 Reference value :  3.75215e-06
 Reference value :  3.75277e-06
 Reference value :  3.75331e-06
 Reference value :  3.75445e-06
 Reference value :  3.75571e-06
 Reference value :  3.75804e-06
 Reference value :  3.76314e-06
 Reference value :  3.77931e-06
 Reference value :  3.84397e-06
 Reference value :  4.00000e-06
 Reference value :  4.00003e-06
 Reference value :  4.00010e-06
 Reference value :  4.00012e-06
 Reference value :  4.00022e-06
 Reference value :  4.00051e-06
 Reference value :  4.00082e-06
 Reference value :  4.00118e-06
 Reference value :  4.00158e-06
 Reference value :  4.00242e-06
 Reference value :  4.00289e-06
 Reference value :  4.00342e-06
 Reference value :  4.00396e-06
 Reference value :  4.00450e-06
 Reference value :  4.00500e-06
 Reference value :  4.00637e-06
 Reference value :  4.00864e-06
 Reference value :  4.01004e-06
 Reference value :  4.01152e-06
 Reference value :  4.01259e-06
 Reference value :  4.01360e-06
 Reference value :  4.01470e-06
 Reference value :  4.01704e-06
 Reference value :  4.02025e-06
 Reference value :  4.02691e-06
 Reference value :  4.03716e-06
 Reference value :  4.04383e-06
 Reference value :  4.04826e-06
 Reference value :  4.05295e-06
 Reference value :  4.05816e-06
 Reference value :  4.07078e-06
 Reference value :  4.08464e-06
 Reference value :  4.11311e-06
 Reference value :  4.18070e-06
 Reference value :  4.25011e-06
 Reference value :  4.25017e-06
 Reference value :  4.25021e-06
 Reference value :  4.25026e-06
 Reference value :  4.25039e-06
 Reference value :  4.25071e-06
 Reference value :  4.25140e-06
 Reference value :  4.25180e-06
 Reference value :  4.25227e-06
 Reference value :  4.25291e-06
 Reference value :  4.25345e-06
 Reference value :  4.25468e-06
 Reference value :  4.25527e-06
 Reference value :  4.25734e-06
 Reference value :  4.26151e-06
 Reference value :  4.27434e-06
 Reference value :  4.32563e-06
 Reference value :  4.42173e-06
 Reference value :  4.47319e-06
 Reference value :  4.50001e-06
 Reference value :  4.50007e-06
 Reference value :  4.50011e-06
 Reference value :  4.50016e-06
 Reference value :  4.50035e-06
 Reference value :  4.50090e-06
 Reference value :  4.50137e-06
 Reference value :  4.50230e-06
 Reference value :  4.50282e-06
 Reference value :  4.50340e-06
 Reference value :  4.50458e-06
 Reference value :  4.50536e-06
 Reference value :  4.50595e-06
 Reference value :  4.50747e-06
 Reference value :  4.50835e-06
 Reference value :  4.50922e-06
 Reference value :  4.51026e-06
 Reference value :  4.51365e-06
 Reference value :  4.52252e-06
 Reference value :  4.54917e-06
 Reference value :  4.61903e-06
 Reference value :  4.69741e-06
 Reference value :  4.75010e-06
 Reference value :  4.75011e-06
 Reference value :  4.75013e-06
 Reference value :  4.75020e-06
 Reference value :  4.75022e-06
 Reference value :  4.75032e-06
 Reference value :  4.75053e-06
 Reference value :  4.75096e-06
 Reference value :  4.75140e-06
 Reference value :  4.75227e-06
 Reference value :  4.75290e-06
 Reference value :  4.75414e-06
 Reference value :  4.75471e-06
 Reference value :  4.75606e-06
 Reference value :  4.75855e-06
 Reference value :  4.76455e-06
 Reference value :  4.78725e-06
 Reference value :  4.87805e-06
 Reference value :  5.00000e-06
 Reference value :  5.00003e-06
 Reference value :  5.00010e-06
 Reference value :  5.00012e-06
 Reference value :  5.00022e-06
 Reference value :  5.00057e-06
 Reference value :  5.00090e-06
 Reference value :  5.00183e-06
 Reference value :  5.00230e-06
 Reference value :  5.00281e-06
 Reference value :  5.00394e-06
 Reference value :  5.00445e-06
 Reference value :  5.00492e-06
 Reference value :  5.00617e-06
 Reference value :  5.00840e-06
 Reference value :  5.00990e-06
 Reference value :  5.01119e-06
 Reference value :  5.01226e-06
 Reference value :  5.01328e-06
 Reference value :  5.01435e-06
 Reference value :  5.01535e-06
 Reference value :  5.01753e-06
 Reference value :  5.01917e-06
 Reference value :  5.02413e-06
 Reference value :  5.03293e-06
 Reference value :  5.03621e-06
 Reference value :  5.04312e-06
 Reference value :  5.04697e-06
 Reference value :  5.05208e-06
 Reference value :  5.06321e-06
 Reference value :  5.07827e-06
 Reference value :  5.11742e-06
 Reference value :  5.23604e-06
 Reference value :  5.25011e-06
 Reference value :  5.25017e-06
 Reference value :  5.25021e-06
 Reference value :  5.25022e-06
 Reference value :  5.25026e-06
 Reference value :  5.25032e-06
 Reference value :  5.25039e-06
 Reference value :  5.25053e-06
 Reference value :  5.25069e-06
 Reference value :  5.25095e-06
 Reference value :  5.25137e-06
 Reference value :  5.25178e-06
 Reference value :  5.25223e-06
 Reference value :  5.25285e-06
 Reference value :  5.25346e-06
 Reference value :  5.25406e-06
 Reference value :  5.25468e-06
 Reference value :  5.25530e-06
 Reference value :  5.25619e-06
 Reference value :  5.25743e-06
 Reference value :  5.25910e-06
 Reference value :  5.26161e-06
 Reference value :  5.26590e-06
 Reference value :  5.27446e-06
 Reference value :  5.29160e-06
 Reference value :  5.32587e-06
 Reference value :  5.39440e-06
 Reference value :  5.50000e-06
 Reference value :  5.50001e-06
 Reference value :  5.50003e-06
 Reference value :  5.50007e-06
 Reference value :  5.50010e-06
 Reference value :  5.50011e-06
 Reference value :  5.50012e-06
 Reference value :  5.50016e-06
 Reference value :  5.50022e-06
 Reference value :  5.50035e-06
 Reference value :  5.50057e-06
 Reference value :  5.50090e-06
 Reference value :  5.50136e-06
 Reference value :  5.50183e-06
 Reference value :  5.50230e-06
 Reference value :  5.50281e-06
 Reference value :  5.50336e-06
 Reference value :  5.50393e-06
 Reference value :  5.50455e-06
 Reference value :  5.50533e-06
 Reference value :  5.50589e-06
 Reference value :  5.50657e-06
 Reference value :  5.50749e-06
 Reference value :  5.50833e-06
 Reference value :  5.50925e-06
 Reference value :  5.51032e-06
 Reference value :  5.51150e-06
 Reference value :  5.51386e-06
 Reference value :  5.51722e-06
 Reference value :  5.52343e-06
 Reference value :  5.53436e-06
 Reference value :  5.55311e-06
 Reference value :  5.59060e-06
 Reference value :  5.66559e-06
 Reference value :  5.75010e-06
 Reference value :  5.75011e-06
 Reference value :  5.75013e-06
 Reference value :  5.75017e-06
 Reference value :  5.75020e-06
 Reference value :  5.75021e-06
 Reference value :  5.75022e-06
 Reference value :  5.75026e-06
 Reference value :  5.75032e-06
 Reference value :  5.75039e-06
 Reference value :  5.75053e-06
 Reference value :  5.75071e-06
 Reference value :  5.75096e-06
 Reference value :  5.75140e-06
 Reference value :  5.75180e-06
 Reference value :  5.75227e-06
 Reference value :  5.75290e-06
 Reference value :  5.75353e-06
 Reference value :  5.75413e-06
 Reference value :  5.75471e-06
 Reference value :  5.75530e-06
 Reference value :  5.75607e-06
 Reference value :  5.75689e-06
 Reference value :  5.75770e-06
 Reference value :  5.75857e-06
 Reference value :  5.76002e-06
 Reference value :  5.76152e-06
 Reference value :  5.76421e-06
 Reference value :  5.76834e-06
 Reference value :  5.77659e-06
 Reference value :  5.79310e-06
 Reference value :  5.82539e-06
 Reference value :  5.88996e-06
 Reference value :  6.00000e-06
 Reference value :  6.00001e-06
 Reference value :  6.00003e-06
 Reference value :  6.00007e-06
 Reference value :  6.00010e-06
 Reference value :  6.00011e-06
 Reference value :  6.00012e-06
 Reference value :  6.00016e-06
 Reference value :  6.00022e-06
 Reference value :  6.00035e-06
 Reference value :  6.00057e-06
 Reference value :  6.00090e-06
 Reference value :  6.00136e-06
 Reference value :  6.00183e-06
 Reference value :  6.00230e-06
 Reference value :  6.00281e-06
 Reference value :  6.00338e-06
 Reference value :  6.00393e-06
 Reference value :  6.00445e-06
 Reference value :  6.00491e-06
 Reference value :  6.00544e-06
 Reference value :  6.00618e-06
 Reference value :  6.00691e-06
 Reference value :  6.00796e-06
 Reference value :  6.00876e-06
 Reference value :  6.00962e-06
 Reference value :  6.01051e-06
 Reference value :  6.01147e-06
 Reference value :  6.01216e-06
 Reference value :  6.01281e-06
 Reference value :  6.01362e-06
 Reference value :  6.01449e-06
 Reference value :  6.01533e-06
 Reference value :  6.01633e-06
 Reference value :  6.01740e-06
 Reference value :  6.01902e-06
 Reference value :  6.02095e-06
 Reference value :  6.02482e-06
 Reference value :  6.02937e-06
 Reference value :  6.03506e-06
 Reference value :  6.04070e-06
 Reference value :  6.05070e-06
 Reference value :  6.06106e-06
 Reference value :  6.07087e-06
 Reference value :  6.08723e-06
 Reference value :  6.10444e-06
 Reference value :  6.13884e-06
 Reference value :  6.19861e-06
 Reference value :  6.25010e-06
 Reference value :  6.25011e-06
 Reference value :  6.25013e-06
 Reference value :  6.25017e-06
 Reference value :  6.25020e-06
 Reference value :  6.25021e-06
 Reference value :  6.25022e-06
 Reference value :  6.25026e-06
 Reference value :  6.25032e-06
 Reference value :  6.25039e-06
 Reference value :  6.25053e-06
 Reference value :  6.25069e-06
 Reference value :  6.25095e-06
 Reference value :  6.25137e-06
 Reference value :  6.25178e-06
 Reference value :  6.25223e-06
 Reference value :  6.25285e-06
 Reference value :  6.25347e-06
 Reference value :  6.25404e-06
 Reference value :  6.25463e-06
 Reference value :  6.25522e-06
 Reference value :  6.25615e-06
 Reference value :  6.25715e-06
 Reference value :  6.25890e-06
 Reference value :  6.26117e-06
 Reference value :  6.26543e-06
 Reference value :  6.27397e-06
 Reference value :  6.29013e-06
 Reference value :  6.32246e-06
 Reference value :  6.38712e-06
 Reference value :  6.50000e-06
 Reference value :  6.50001e-06
 Reference value :  6.50003e-06
 Reference value :  6.50007e-06
 Reference value :  6.50010e-06
 Reference value :  6.50011e-06
 Reference value :  6.50012e-06
 Reference value :  6.50016e-06
 Reference value :  6.50022e-06
 Reference value :  6.50035e-06
 Reference value :  6.50057e-06
 Reference value :  6.50090e-06
 Reference value :  6.50136e-06
 Reference value :  6.50183e-06
 Reference value :  6.50230e-06
 Reference value :  6.50281e-06
 Reference value :  6.50336e-06
 Reference value :  6.50393e-06
 Reference value :  6.50455e-06
 Reference value :  6.50533e-06
 Reference value :  6.50589e-06
 Reference value :  6.50657e-06
 Reference value :  6.50749e-06
 Reference value :  6.50832e-06
 Reference value :  6.50924e-06
 Reference value :  6.51031e-06
 Reference value :  6.51148e-06
 Reference value :  6.51384e-06
 Reference value :  6.51719e-06
 Reference value :  6.52339e-06
 Reference value :  6.53432e-06
 Reference value :  6.55308e-06
 Reference value :  6.59060e-06
 Reference value :  6.66563e-06
 Reference value :  6.75010e-06
 Reference value :  6.75011e-06
 Reference value :  6.75013e-06
 Reference value :  6.75017e-06
 Reference value :  6.75020e-06
 Reference value :  6.75021e-06
 Reference value :  6.75022e-06
 Reference value :  6.75026e-06
 Reference value :  6.75032e-06
 Reference value :  6.75039e-06
 Reference value :  6.75053e-06
 Reference value :  6.75071e-06
 Reference value :  6.75096e-06
 Reference value :  6.75140e-06
 Reference value :  6.75180e-06
 Reference value :  6.75227e-06
 Reference value :  6.75290e-06
 Reference value :  6.75354e-06
 Reference value :  6.75414e-06
 Reference value :  6.75471e-06
 Reference value :  6.75531e-06
 Reference value :  6.75607e-06
 Reference value :  6.75690e-06
 Reference value :  6.75770e-06
 Reference value :  6.75858e-06
 Reference value :  6.76019e-06
 Reference value :  6.76164e-06
 Reference value :  6.76450e-06
 Reference value :  6.76862e-06
 Reference value :  6.77687e-06
 Reference value :  6.79336e-06
 Reference value :  6.82517e-06
 Reference value :  6.88879e-06
 Reference value :  7.00000e-06
 Reference value :  7.00001e-06
 Reference value :  7.00003e-06
 Reference value :  7.00007e-06
 Reference value :  7.00010e-06
 Reference value :  7.00011e-06
 Reference value :  7.00012e-06
 Reference value :  7.00016e-06
 Reference value :  7.00022e-06
 Reference value :  7.00035e-06
 Reference value :  7.00057e-06
 Reference value :  7.00090e-06
 Reference value :  7.00136e-06
 Reference value :  7.00183e-06
 Reference value :  7.00230e-06
 Reference value :  7.00281e-06
 Reference value :  7.00338e-06
 Reference value :  7.00393e-06
 Reference value :  7.00445e-06
 Reference value :  7.00491e-06
 Reference value :  7.00544e-06
 Reference value :  7.00618e-06
 Reference value :  7.00691e-06
 Reference value :  7.00796e-06
 Reference value :  7.00877e-06
 Reference value :  7.00963e-06
 Reference value :  7.01053e-06
 Reference value :  7.01149e-06
 Reference value :  7.01218e-06
 Reference value :  7.01284e-06
 Reference value :  7.01368e-06
 Reference value :  7.01456e-06
 Reference value :  7.01539e-06
 Reference value :  7.01643e-06
 Reference value :  7.01750e-06
 Reference value :  7.01915e-06
 Reference value :  7.02121e-06
 Reference value :  7.02442e-06
 Reference value :  7.02793e-06
 Reference value :  7.03496e-06
 Reference value :  7.04812e-06
 Reference value :  7.06994e-06
 Reference value :  7.11229e-06
 Reference value :  7.17390e-06
 Reference value :  7.25010e-06
 Reference value :  7.25011e-06
 Reference value :  7.25013e-06
 Reference value :  7.25017e-06
 Reference value :  7.25020e-06
 Reference value :  7.25021e-06
 Reference value :  7.25022e-06
 Reference value :  7.25026e-06
 Reference value :  7.25032e-06
 Reference value :  7.25039e-06
 Reference value :  7.25053e-06
 Reference value :  7.25069e-06
 Reference value :  7.25095e-06
 Reference value :  7.25137e-06
 Reference value :  7.25178e-06
 Reference value :  7.25223e-06
 Reference value :  7.25285e-06
 Reference value :  7.25347e-06
 Reference value :  7.25404e-06
 Reference value :  7.25463e-06
 Reference value :  7.25522e-06
 Reference value :  7.25615e-06
 Reference value :  7.25716e-06
 Reference value :  7.25890e-06
 Reference value :  7.26117e-06
 Reference value :  7.26544e-06
 Reference value :  7.27397e-06
 Reference value :  7.29020e-06
 Reference value :  7.32265e-06
 Reference value :  7.38754e-06
 Reference value :  7.50000e-06
 Reference value :  7.50001e-06
 Reference value :  7.50003e-06
 Reference value :  7.50007e-06
 Reference value :  7.50010e-06
 Reference value :  7.50011e-06
 Reference value :  7.50012e-06
 Reference value :  7.50016e-06
 Reference value :  7.50022e-06
 Reference value :  7.50035e-06
 Reference value :  7.50057e-06
 Reference value :  7.50090e-06
 Reference value :  7.50136e-06
 Reference value :  7.50183e-06
 Reference value :  7.50230e-06
 Reference value :  7.50281e-06
 Reference value :  7.50336e-06
 Reference value :  7.50393e-06
 Reference value :  7.50455e-06
 Reference value :  7.50533e-06
 Reference value :  7.50589e-06
 Reference value :  7.50657e-06
 Reference value :  7.50749e-06
 Reference value :  7.50832e-06
 Reference value :  7.50924e-06
 Reference value :  7.51031e-06
 Reference value :  7.51148e-06
 Reference value :  7.51383e-06
 Reference value :  7.51717e-06
 Reference value :  7.52336e-06
 Reference value :  7.53425e-06
 Reference value :  7.55292e-06
 Reference value :  7.59026e-06
 Reference value :  7.66493e-06
 Reference value :  7.75010e-06
 Reference value :  7.75011e-06
 Reference value :  7.75013e-06
 Reference value :  7.75017e-06
 Reference value :  7.75020e-06
 Reference value :  7.75021e-06
 Reference value :  7.75022e-06
 Reference value :  7.75026e-06
 Reference value :  7.75032e-06
 Reference value :  7.75039e-06
 Reference value :  7.75053e-06
 Reference value :  7.75071e-06
 Reference value :  7.75096e-06
 Reference value :  7.75140e-06
 Reference value :  7.75180e-06
 Reference value :  7.75227e-06
 Reference value :  7.75290e-06
 Reference value :  7.75354e-06
 Reference value :  7.75414e-06
 Reference value :  7.75471e-06
 Reference value :  7.75531e-06
 Reference value :  7.75607e-06
 Reference value :  7.75690e-06
 Reference value :  7.75770e-06
 Reference value :  7.75858e-06
 Reference value :  7.76019e-06
 Reference value :  7.76164e-06
 Reference value :  7.76450e-06
 Reference value :  7.76862e-06
 Reference value :  7.77685e-06
 Reference value :  7.79333e-06
 Reference value :  7.82513e-06
 Reference value :  7.88874e-06
 Reference value :  8.00000e-06
 Reference value :  8.00001e-06
 Reference value :  8.00003e-06
 Reference value :  8.00007e-06
 Reference value :  8.00010e-06
 Reference value :  8.00011e-06
 Reference value :  8.00012e-06
 Reference value :  8.00016e-06
 Reference value :  8.00022e-06
 Reference value :  8.00035e-06
 Reference value :  8.00057e-06
 Reference value :  8.00090e-06
 Reference value :  8.00136e-06
 Reference value :  8.00183e-06
 Reference value :  8.00230e-06
 Reference value :  8.00281e-06
 Reference value :  8.00338e-06
 Reference value :  8.00394e-06
 Reference value :  8.00445e-06
 Reference value :  8.00492e-06
 Reference value :  8.00545e-06
 Reference value :  8.00621e-06
 Reference value :  8.00693e-06
 Reference value :  8.00778e-06
 Reference value :  8.00862e-06
 Reference value :  8.00944e-06
 Reference value :  8.01033e-06
 Reference value :  8.01129e-06
 Reference value :  8.01320e-06
 Reference value :  8.01517e-06
 Reference value :  8.01726e-06
 Reference value :  8.02017e-06
 Reference value :  8.02380e-06
 Reference value :  8.02785e-06
 Reference value :  8.03356e-06
 Reference value :  8.03883e-06
 Reference value :  8.04403e-06
 Reference value :  8.04949e-06
 Reference value :  8.05494e-06
 Reference value :  8.06583e-06
 Reference value :  8.07621e-06
 Reference value :  8.08717e-06
 Reference value :  8.10570e-06
 Reference value :  8.14276e-06
 Reference value :  8.18690e-06
 Reference value :  8.25010e-06
 Reference value :  8.25011e-06
 Reference value :  8.25013e-06
 Reference value :  8.25017e-06
 Reference value :  8.25020e-06
 Reference value :  8.25021e-06
 Reference value :  8.25022e-06
 Reference value :  8.25026e-06
 Reference value :  8.25032e-06
 Reference value :  8.25045e-06
 Reference value :  8.25058e-06
 Reference value :  8.25079e-06
 Reference value :  8.25119e-06
 Reference value :  8.25160e-06
 Reference value :  8.25199e-06
 Reference value :  8.25255e-06
 Reference value :  8.25326e-06
 Reference value :  8.25400e-06
 Reference value :  8.25475e-06
 Reference value :  8.25570e-06
 Reference value :  8.25669e-06
 Reference value :  8.25813e-06
 Reference value :  8.26007e-06
 Reference value :  8.26281e-06
 Reference value :  8.26765e-06
 Reference value :  8.27450e-06
 Reference value :  8.28596e-06
 Reference value :  8.30381e-06
 Reference value :  8.33646e-06
 Reference value :  8.40177e-06
 Reference value :  8.50000e-06
No. of Data Rows : 1245
ngspice-44 done
