
Note: Compatibility modes selected: hs a


Circuit: ** sch_path: /home/audrey/cace/sar-adc-using-sky130-pdk/runs/run_2025-09-09_19-18-54/parameters/power/run_2/power_consumption.sch

option SCALE: Scale is set to 1e-06 for instance and model parameters
option SCALE: Scale is set to 1e-06 for instance and model parameters
option SCALE: Scale is set to 1e-06 for instance and model parameters
option SCALE: Scale is set to 1e-06 for instance and model parameters
Doing analysis at TEMP = 27.000000 and TNOM = 27.000000

Using KLU as Direct Linear Solver
 Reference value :  0.00000e+00
 Reference value :  1.00000e-12
 Reference value :  2.00000e-12
 Reference value :  4.00000e-12
 Reference value :  8.00000e-12
 Reference value :  1.60000e-11
 Reference value :  3.20000e-11
 Reference value :  6.40000e-11
 Reference value :  1.00000e-10
 Reference value :  1.01503e-10
 Reference value :  1.04508e-10
 Reference value :  1.10520e-10
 Reference value :  1.22542e-10
 Reference value :  1.46587e-10
 Reference value :  1.94677e-10
 Reference value :  2.90857e-10
 Reference value :  4.51894e-10
 Reference value :  7.15638e-10
 Reference value :  1.18242e-09
 Reference value :  1.66403e-09
 Reference value :  2.37761e-09
 Reference value :  3.05043e-09
 Reference value :  3.78427e-09
 Reference value :  4.60261e-09
 Reference value :  5.49489e-09
 Reference value :  6.23582e-09
 Reference value :  7.07740e-09
 Reference value :  7.85971e-09
 Reference value :  8.71193e-09
 Reference value :  9.74232e-09
 Reference value :  1.08649e-08
 Reference value :  1.21888e-08
 Reference value :  1.35837e-08
 Reference value :  1.49286e-08
 Reference value :  1.64805e-08
 Reference value :  1.81338e-08
 Reference value :  1.94204e-08
 Reference value :  2.09045e-08
 Reference value :  2.23111e-08
 Reference value :  2.40274e-08
 Reference value :  2.59281e-08
 Reference value :  2.86942e-08
 Reference value :  3.13579e-08
 Reference value :  3.41567e-08
 Reference value :  3.71141e-08
 Reference value :  3.95864e-08
 Reference value :  4.07483e-08
 Reference value :  4.18598e-08
 Reference value :  4.30232e-08
 Reference value :  4.44444e-08
 Reference value :  4.63945e-08
 Reference value :  4.91462e-08
 Reference value :  5.33516e-08
 Reference value :  5.72786e-08
 Reference value :  6.26221e-08
 Reference value :  6.75574e-08
 Reference value :  7.73086e-08
 Reference value :  8.94191e-08
 Reference value :  1.12012e-07
 Reference value :  1.34097e-07
 Reference value :  1.72269e-07
 Reference value :  2.16278e-07
 Reference value :  2.50100e-07
 Reference value :  2.50110e-07
 Reference value :  2.50130e-07
 Reference value :  2.50170e-07
 Reference value :  2.50200e-07
 Reference value :  2.50201e-07
 Reference value :  2.50202e-07
 Reference value :  2.50204e-07
 Reference value :  2.50208e-07
 Reference value :  2.50216e-07
 Reference value :  2.50233e-07
 Reference value :  2.50267e-07
 Reference value :  2.50334e-07
 Reference value :  2.50428e-07
 Reference value :  2.50615e-07
 Reference value :  2.50806e-07
 Reference value :  2.51148e-07
 Reference value :  2.51586e-07
 Reference value :  2.52220e-07
 Reference value :  2.52882e-07
 Reference value :  2.53722e-07
 Reference value :  2.54754e-07
 Reference value :  2.55797e-07
 Reference value :  2.56724e-07
 Reference value :  2.57704e-07
 Reference value :  2.58761e-07
 Reference value :  2.59861e-07
 Reference value :  2.61355e-07
 Reference value :  2.63857e-07
 Reference value :  2.66427e-07
 Reference value :  2.70807e-07
 Reference value :  2.76324e-07
 Reference value :  2.87358e-07
 Reference value :  3.09426e-07
 Reference value :  3.53562e-07
 Reference value :  4.41834e-07
 Reference value :  5.00000e-07
 Reference value :  5.00010e-07
 Reference value :  5.00030e-07
 Reference value :  5.00070e-07
 Reference value :  5.00100e-07
 Reference value :  5.00104e-07
 Reference value :  5.00113e-07
 Reference value :  5.00130e-07
 Reference value :  5.00164e-07
 Reference value :  5.00232e-07
 Reference value :  5.00369e-07
 Reference value :  5.00560e-07
 Reference value :  5.00942e-07
 Reference value :  5.01536e-07
 Reference value :  5.02163e-07
 Reference value :  5.02854e-07
 Reference value :  5.03676e-07
 Reference value :  5.04427e-07
 Reference value :  5.05343e-07
 Reference value :  5.06304e-07
 Reference value :  5.07295e-07
 Reference value :  5.08693e-07
 Reference value :  5.10120e-07
 Reference value :  5.12687e-07
 Reference value :  5.15599e-07
 Reference value :  5.17745e-07
 Reference value :  5.20188e-07
 Reference value :  5.22668e-07
 Reference value :  5.25196e-07
 Reference value :  5.28452e-07
 Reference value :  5.32990e-07
 Reference value :  5.39215e-07
 Reference value :  5.48607e-07
 Reference value :  5.67256e-07
 Reference value :  5.94663e-07
 Reference value :  6.45915e-07
 Reference value :  7.48418e-07
 Reference value :  7.50100e-07
 Reference value :  7.50110e-07
 Reference value :  7.50130e-07
 Reference value :  7.50170e-07
 Reference value :  7.50200e-07
 Reference value :  7.50201e-07
 Reference value :  7.50202e-07
 Reference value :  7.50205e-07
 Reference value :  7.50212e-07
 Reference value :  7.50224e-07
 Reference value :  7.50249e-07
 Reference value :  7.50298e-07
 Reference value :  7.50396e-07
 Reference value :  7.50594e-07
 Reference value :  7.50984e-07
 Reference value :  7.51569e-07
 Reference value :  7.52239e-07
 Reference value :  7.52985e-07
 Reference value :  7.53829e-07
 Reference value :  7.54923e-07
 Reference value :  7.55816e-07
 Reference value :  7.56877e-07
 Reference value :  7.57787e-07
 Reference value :  7.58771e-07
 Reference value :  7.59882e-07
 Reference value :  7.61130e-07
 Reference value :  7.63627e-07
 Reference value :  7.66442e-07
 Reference value :  7.70870e-07
 Reference value :  7.76834e-07
 Reference value :  7.88760e-07
 Reference value :  8.12614e-07
 Reference value :  8.60101e-07
 Reference value :  9.55076e-07
 Reference value :  1.00000e-06
 Reference value :  1.00001e-06
 Reference value :  1.00003e-06
 Reference value :  1.00007e-06
 Reference value :  1.00010e-06
 Reference value :  1.00010e-06
 Reference value :  1.00011e-06
 Reference value :  1.00013e-06
 Reference value :  1.00016e-06
 Reference value :  1.00023e-06
 Reference value :  1.00037e-06
 Reference value :  1.00056e-06
 Reference value :  1.00094e-06
 Reference value :  1.00153e-06
 Reference value :  1.00216e-06
 Reference value :  1.00285e-06
 Reference value :  1.00357e-06
 Reference value :  1.00432e-06
 Reference value :  1.00516e-06
 Reference value :  1.00607e-06
 Reference value :  1.00702e-06
 Reference value :  1.00795e-06
 Reference value :  1.00904e-06
 Reference value :  1.01001e-06
 Reference value :  1.01108e-06
 Reference value :  1.01259e-06
 Reference value :  1.01427e-06
 Reference value :  1.01717e-06
 Reference value :  1.02013e-06
 Reference value :  1.02249e-06
 Reference value :  1.02463e-06
 Reference value :  1.02615e-06
 Reference value :  1.02771e-06
 Reference value :  1.02918e-06
 Reference value :  1.03075e-06
 Reference value :  1.03250e-06
 Reference value :  1.03521e-06
 Reference value :  1.03769e-06
 Reference value :  1.04250e-06
 Reference value :  1.04925e-06
 Reference value :  1.05948e-06
 Reference value :  1.07681e-06
 Reference value :  1.10502e-06
 Reference value :  1.14440e-06
 Reference value :  1.19069e-06
 Reference value :  1.22882e-06
 Reference value :  1.25010e-06
 Reference value :  1.25011e-06
 Reference value :  1.25013e-06
 Reference value :  1.25017e-06
 Reference value :  1.25020e-06
 Reference value :  1.25020e-06
 Reference value :  1.25020e-06
 Reference value :  1.25021e-06
 Reference value :  1.25021e-06
 Reference value :  1.25022e-06
 Reference value :  1.25025e-06
 Reference value :  1.25030e-06
 Reference value :  1.25039e-06
 Reference value :  1.25059e-06
 Reference value :  1.25092e-06
 Reference value :  1.25155e-06
 Reference value :  1.25216e-06
 Reference value :  1.25295e-06
 Reference value :  1.25376e-06
 Reference value :  1.25484e-06
 Reference value :  1.25572e-06
 Reference value :  1.25675e-06
 Reference value :  1.25773e-06
 Reference value :  1.25875e-06
 Reference value :  1.26048e-06
 Reference value :  1.26209e-06
 Reference value :  1.26496e-06
 Reference value :  1.26809e-06
 Reference value :  1.27317e-06
 Reference value :  1.28271e-06
 Reference value :  1.30180e-06
 Reference value :  1.33704e-06
 Reference value :  1.40752e-06
 Reference value :  1.50000e-06
 Reference value :  1.50001e-06
 Reference value :  1.50003e-06
 Reference value :  1.50007e-06
 Reference value :  1.50010e-06
 Reference value :  1.50010e-06
 Reference value :  1.50011e-06
 Reference value :  1.50013e-06
 Reference value :  1.50016e-06
 Reference value :  1.50023e-06
 Reference value :  1.50037e-06
 Reference value :  1.50056e-06
 Reference value :  1.50093e-06
 Reference value :  1.50161e-06
 Reference value :  1.50223e-06
 Reference value :  1.50286e-06
 Reference value :  1.50357e-06
 Reference value :  1.50431e-06
 Reference value :  1.50516e-06
 Reference value :  1.50606e-06
 Reference value :  1.50711e-06
 Reference value :  1.50845e-06
 Reference value :  1.50982e-06
 Reference value :  1.51139e-06
 Reference value :  1.51279e-06
 Reference value :  1.51425e-06
 Reference value :  1.51632e-06
 Reference value :  1.51822e-06
 Reference value :  1.52025e-06
 Reference value :  1.52333e-06
 Reference value :  1.52623e-06
 Reference value :  1.53176e-06
 Reference value :  1.53924e-06
 Reference value :  1.55162e-06
 Reference value :  1.57329e-06
 Reference value :  1.60796e-06
 Reference value :  1.67149e-06
 Reference value :  1.75010e-06
 Reference value :  1.75011e-06
 Reference value :  1.75013e-06
 Reference value :  1.75017e-06
 Reference value :  1.75020e-06
 Reference value :  1.75020e-06
 Reference value :  1.75020e-06
 Reference value :  1.75021e-06
 Reference value :  1.75021e-06
 Reference value :  1.75022e-06
 Reference value :  1.75025e-06
 Reference value :  1.75030e-06
 Reference value :  1.75040e-06
 Reference value :  1.75059e-06
 Reference value :  1.75094e-06
 Reference value :  1.75155e-06
 Reference value :  1.75218e-06
 Reference value :  1.75295e-06
 Reference value :  1.75378e-06
 Reference value :  1.75485e-06
 Reference value :  1.75576e-06
 Reference value :  1.75682e-06
 Reference value :  1.75775e-06
 Reference value :  1.75873e-06
 Reference value :  1.75987e-06
 Reference value :  1.76115e-06
 Reference value :  1.76245e-06
 Reference value :  1.76424e-06
 Reference value :  1.76646e-06
 Reference value :  1.76922e-06
 Reference value :  1.77289e-06
 Reference value :  1.77804e-06
 Reference value :  1.78835e-06
 Reference value :  1.80595e-06
 Reference value :  1.84115e-06
 Reference value :  1.91155e-06
 Reference value :  2.00000e-06
 Reference value :  2.00001e-06
 Reference value :  2.00003e-06
 Reference value :  2.00007e-06
 Reference value :  2.00010e-06
 Reference value :  2.00010e-06
 Reference value :  2.00011e-06
 Reference value :  2.00013e-06
 Reference value :  2.00016e-06
 Reference value :  2.00023e-06
 Reference value :  2.00037e-06
 Reference value :  2.00055e-06
 Reference value :  2.00092e-06
 Reference value :  2.00160e-06
 Reference value :  2.00223e-06
 Reference value :  2.00291e-06
 Reference value :  2.00363e-06
 Reference value :  2.00438e-06
 Reference value :  2.00522e-06
 Reference value :  2.00613e-06
 Reference value :  2.00697e-06
 Reference value :  2.00785e-06
 Reference value :  2.00875e-06
 Reference value :  2.00971e-06
 Reference value :  2.01060e-06
 Reference value :  2.01185e-06
 Reference value :  2.01314e-06
 Reference value :  2.01539e-06
 Reference value :  2.01787e-06
 Reference value :  2.01971e-06
 Reference value :  2.02176e-06
 Reference value :  2.02372e-06
 Reference value :  2.02521e-06
 Reference value :  2.02661e-06
 Reference value :  2.02809e-06
 Reference value :  2.02966e-06
 Reference value :  2.03164e-06
 Reference value :  2.03343e-06
 Reference value :  2.03635e-06
 Reference value :  2.03936e-06
 Reference value :  2.04538e-06
 Reference value :  2.05701e-06
 Reference value :  2.07527e-06
 Reference value :  2.09825e-06
 Reference value :  2.12050e-06
 Reference value :  2.13999e-06
 Reference value :  2.15152e-06
 Reference value :  2.16442e-06
 Reference value :  2.17628e-06
 Reference value :  2.19297e-06
 Reference value :  2.20905e-06
 Reference value :  2.23154e-06
 Reference value :  2.25010e-06
 Reference value :  2.25011e-06
 Reference value :  2.25013e-06
 Reference value :  2.25017e-06
 Reference value :  2.25020e-06
 Reference value :  2.25020e-06
 Reference value :  2.25020e-06
 Reference value :  2.25021e-06
 Reference value :  2.25021e-06
 Reference value :  2.25022e-06
 Reference value :  2.25025e-06
 Reference value :  2.25030e-06
 Reference value :  2.25039e-06
 Reference value :  2.25059e-06
 Reference value :  2.25093e-06
 Reference value :  2.25154e-06
 Reference value :  2.25217e-06
 Reference value :  2.25295e-06
 Reference value :  2.25376e-06
 Reference value :  2.25483e-06
 Reference value :  2.25579e-06
 Reference value :  2.25687e-06
 Reference value :  2.25798e-06
 Reference value :  2.25905e-06
 Reference value :  2.26085e-06
 Reference value :  2.26260e-06
 Reference value :  2.26542e-06
 Reference value :  2.26896e-06
 Reference value :  2.27429e-06
 Reference value :  2.28493e-06
 Reference value :  2.30357e-06
 Reference value :  2.33756e-06
 Reference value :  2.40554e-06
 Reference value :  2.46971e-06
 Reference value :  2.50000e-06
 Reference value :  2.50001e-06
 Reference value :  2.50003e-06
 Reference value :  2.50007e-06
 Reference value :  2.50010e-06
 Reference value :  2.50010e-06
 Reference value :  2.50011e-06
 Reference value :  2.50013e-06
 Reference value :  2.50016e-06
 Reference value :  2.50023e-06
 Reference value :  2.50037e-06
 Reference value :  2.50055e-06
 Reference value :  2.50092e-06
 Reference value :  2.50160e-06
 Reference value :  2.50223e-06
 Reference value :  2.50291e-06
 Reference value :  2.50363e-06
 Reference value :  2.50438e-06
 Reference value :  2.50524e-06
 Reference value :  2.50616e-06
 Reference value :  2.50719e-06
 Reference value :  2.50853e-06
 Reference value :  2.50991e-06
 Reference value :  2.51147e-06
 Reference value :  2.51303e-06
 Reference value :  2.51463e-06
 Reference value :  2.51656e-06
 Reference value :  2.51830e-06
 Reference value :  2.52026e-06
 Reference value :  2.52237e-06
 Reference value :  2.52661e-06
 Reference value :  2.53479e-06
 Reference value :  2.54850e-06
 Reference value :  2.57593e-06
 Reference value :  2.63080e-06
 Reference value :  2.74052e-06
 Reference value :  2.75010e-06
 Reference value :  2.75011e-06
 Reference value :  2.75013e-06
 Reference value :  2.75017e-06
 Reference value :  2.75020e-06
 Reference value :  2.75020e-06
 Reference value :  2.75020e-06
 Reference value :  2.75021e-06
 Reference value :  2.75021e-06
 Reference value :  2.75022e-06
 Reference value :  2.75025e-06
 Reference value :  2.75030e-06
 Reference value :  2.75039e-06
 Reference value :  2.75059e-06
 Reference value :  2.75093e-06
 Reference value :  2.75154e-06
 Reference value :  2.75216e-06
 Reference value :  2.75294e-06
 Reference value :  2.75375e-06
 Reference value :  2.75482e-06
 Reference value :  2.75575e-06
 Reference value :  2.75683e-06
 Reference value :  2.75777e-06
 Reference value :  2.75877e-06
 Reference value :  2.75990e-06
 Reference value :  2.76118e-06
 Reference value :  2.76373e-06
 Reference value :  2.76654e-06
 Reference value :  2.77107e-06
 Reference value :  2.77719e-06
 Reference value :  2.78942e-06
 Reference value :  2.81388e-06
 Reference value :  2.86280e-06
 Reference value :  2.96065e-06
 Reference value :  3.00000e-06
 Reference value :  3.00001e-06
 Reference value :  3.00003e-06
 Reference value :  3.00007e-06
 Reference value :  3.00010e-06
 Reference value :  3.00010e-06
 Reference value :  3.00011e-06
 Reference value :  3.00013e-06
 Reference value :  3.00016e-06
 Reference value :  3.00023e-06
 Reference value :  3.00037e-06
 Reference value :  3.00055e-06
 Reference value :  3.00092e-06
 Reference value :  3.00160e-06
 Reference value :  3.00223e-06
 Reference value :  3.00291e-06
 Reference value :  3.00363e-06
 Reference value :  3.00439e-06
 Reference value :  3.00523e-06
 Reference value :  3.00615e-06
 Reference value :  3.00710e-06
 Reference value :  3.00812e-06
 Reference value :  3.00918e-06
 Reference value :  3.01020e-06
 Reference value :  3.01129e-06
 Reference value :  3.01274e-06
 Reference value :  3.01454e-06
 Reference value :  3.01749e-06
 Reference value :  3.02028e-06
 Reference value :  3.02266e-06
 Reference value :  3.02457e-06
 Reference value :  3.02637e-06
 Reference value :  3.02839e-06
 Reference value :  3.03026e-06
 Reference value :  3.03253e-06
 Reference value :  3.03488e-06
 Reference value :  3.03823e-06
 Reference value :  3.04226e-06
 Reference value :  3.05001e-06
 Reference value :  3.05810e-06
 Reference value :  3.06570e-06
 Reference value :  3.07457e-06
 Reference value :  3.08489e-06
 Reference value :  3.09169e-06
 Reference value :  3.09913e-06
 Reference value :  3.10547e-06
 Reference value :  3.11302e-06
 Reference value :  3.12161e-06
 Reference value :  3.12992e-06
 Reference value :  3.14655e-06
 Reference value :  3.16644e-06
 Reference value :  3.19789e-06
 Reference value :  3.25010e-06
 Reference value :  3.25011e-06
 Reference value :  3.25013e-06
 Reference value :  3.25017e-06
 Reference value :  3.25020e-06
 Reference value :  3.25020e-06
 Reference value :  3.25020e-06
 Reference value :  3.25021e-06
 Reference value :  3.25021e-06
 Reference value :  3.25022e-06
 Reference value :  3.25025e-06
 Reference value :  3.25030e-06
 Reference value :  3.25039e-06
 Reference value :  3.25059e-06
 Reference value :  3.25092e-06
 Reference value :  3.25154e-06
 Reference value :  3.25216e-06
 Reference value :  3.25294e-06
 Reference value :  3.25375e-06
 Reference value :  3.25482e-06
 Reference value :  3.25570e-06
 Reference value :  3.25673e-06
 Reference value :  3.25771e-06
 Reference value :  3.25873e-06
 Reference value :  3.26045e-06
 Reference value :  3.26206e-06
 Reference value :  3.26491e-06
 Reference value :  3.26803e-06
 Reference value :  3.27309e-06
 Reference value :  3.28245e-06
 Reference value :  3.30117e-06
 Reference value :  3.33789e-06
 Reference value :  3.41134e-06
 Reference value :  3.50000e-06
 Reference value :  3.50001e-06
 Reference value :  3.50003e-06
 Reference value :  3.50007e-06
 Reference value :  3.50010e-06
 Reference value :  3.50010e-06
 Reference value :  3.50011e-06
 Reference value :  3.50013e-06
 Reference value :  3.50016e-06
 Reference value :  3.50023e-06
 Reference value :  3.50037e-06
 Reference value :  3.50056e-06
 Reference value :  3.50093e-06
 Reference value :  3.50161e-06
 Reference value :  3.50223e-06
 Reference value :  3.50286e-06
 Reference value :  3.50357e-06
 Reference value :  3.50431e-06
 Reference value :  3.50516e-06
 Reference value :  3.50606e-06
 Reference value :  3.50702e-06
 Reference value :  3.50838e-06
 Reference value :  3.50964e-06
 Reference value :  3.51121e-06
 Reference value :  3.51251e-06
 Reference value :  3.51391e-06
 Reference value :  3.51569e-06
 Reference value :  3.51758e-06
 Reference value :  3.51943e-06
 Reference value :  3.52228e-06
 Reference value :  3.52500e-06
 Reference value :  3.53010e-06
 Reference value :  3.53730e-06
 Reference value :  3.54923e-06
 Reference value :  3.57077e-06
 Reference value :  3.60601e-06
 Reference value :  3.67067e-06
 Reference value :  3.75010e-06
 Reference value :  3.75011e-06
 Reference value :  3.75013e-06
 Reference value :  3.75017e-06
 Reference value :  3.75020e-06
 Reference value :  3.75020e-06
 Reference value :  3.75020e-06
 Reference value :  3.75021e-06
 Reference value :  3.75021e-06
 Reference value :  3.75022e-06
 Reference value :  3.75025e-06
 Reference value :  3.75030e-06
 Reference value :  3.75040e-06
 Reference value :  3.75059e-06
 Reference value :  3.75094e-06
 Reference value :  3.75154e-06
 Reference value :  3.75218e-06
 Reference value :  3.75295e-06
 Reference value :  3.75377e-06
 Reference value :  3.75483e-06
 Reference value :  3.75574e-06
 Reference value :  3.75681e-06
 Reference value :  3.75774e-06
 Reference value :  3.75873e-06
 Reference value :  3.75986e-06
 Reference value :  3.76112e-06
 Reference value :  3.76239e-06
 Reference value :  3.76420e-06
 Reference value :  3.76634e-06
 Reference value :  3.76909e-06
 Reference value :  3.77267e-06
 Reference value :  3.77775e-06
 Reference value :  3.78791e-06
 Reference value :  3.80368e-06
 Reference value :  3.83522e-06
 Reference value :  3.89830e-06
 Reference value :  4.00000e-06
 Reference value :  4.00001e-06
 Reference value :  4.00003e-06
 Reference value :  4.00007e-06
 Reference value :  4.00010e-06
 Reference value :  4.00010e-06
 Reference value :  4.00011e-06
 Reference value :  4.00013e-06
 Reference value :  4.00016e-06
 Reference value :  4.00023e-06
 Reference value :  4.00037e-06
 Reference value :  4.00055e-06
 Reference value :  4.00092e-06
 Reference value :  4.00160e-06
 Reference value :  4.00223e-06
 Reference value :  4.00291e-06
 Reference value :  4.00363e-06
 Reference value :  4.00438e-06
 Reference value :  4.00522e-06
 Reference value :  4.00613e-06
 Reference value :  4.00697e-06
 Reference value :  4.00785e-06
 Reference value :  4.00875e-06
 Reference value :  4.00972e-06
 Reference value :  4.01065e-06
 Reference value :  4.01197e-06
 Reference value :  4.01333e-06
 Reference value :  4.01560e-06
 Reference value :  4.01720e-06
 Reference value :  4.01891e-06
 Reference value :  4.02047e-06
 Reference value :  4.02227e-06
 Reference value :  4.02357e-06
 Reference value :  4.02481e-06
 Reference value :  4.02649e-06
 Reference value :  4.02803e-06
 Reference value :  4.02965e-06
 Reference value :  4.03148e-06
 Reference value :  4.03342e-06
 Reference value :  4.03649e-06
 Reference value :  4.04013e-06
 Reference value :  4.04518e-06
 Reference value :  4.05034e-06
 Reference value :  4.05460e-06
 Reference value :  4.05780e-06
 Reference value :  4.06051e-06
 Reference value :  4.06344e-06
 Reference value :  4.06809e-06
 Reference value :  4.07471e-06
 Reference value :  4.08472e-06
 Reference value :  4.09522e-06
 Reference value :  4.11623e-06
 Reference value :  4.13946e-06
 Reference value :  4.16636e-06
 Reference value :  4.19386e-06
 Reference value :  4.23444e-06
 Reference value :  4.25010e-06
 Reference value :  4.25011e-06
 Reference value :  4.25013e-06
 Reference value :  4.25017e-06
 Reference value :  4.25020e-06
 Reference value :  4.25020e-06
 Reference value :  4.25020e-06
 Reference value :  4.25021e-06
 Reference value :  4.25021e-06
 Reference value :  4.25022e-06
 Reference value :  4.25025e-06
 Reference value :  4.25030e-06
 Reference value :  4.25039e-06
 Reference value :  4.25059e-06
 Reference value :  4.25093e-06
 Reference value :  4.25154e-06
 Reference value :  4.25216e-06
 Reference value :  4.25294e-06
 Reference value :  4.25375e-06
 Reference value :  4.25482e-06
 Reference value :  4.25578e-06
 Reference value :  4.25687e-06
 Reference value :  4.25797e-06
 Reference value :  4.25904e-06
 Reference value :  4.26083e-06
 Reference value :  4.26258e-06
 Reference value :  4.26541e-06
 Reference value :  4.26894e-06
 Reference value :  4.27421e-06
 Reference value :  4.28473e-06
 Reference value :  4.30337e-06
 Reference value :  4.33715e-06
 Reference value :  4.40470e-06
 Reference value :  4.50000e-06
 Reference value :  4.50001e-06
 Reference value :  4.50003e-06
 Reference value :  4.50007e-06
 Reference value :  4.50010e-06
 Reference value :  4.50010e-06
 Reference value :  4.50011e-06
 Reference value :  4.50013e-06
 Reference value :  4.50016e-06
 Reference value :  4.50023e-06
 Reference value :  4.50037e-06
 Reference value :  4.50056e-06
 Reference value :  4.50092e-06
 Reference value :  4.50161e-06
 Reference value :  4.50223e-06
 Reference value :  4.50291e-06
 Reference value :  4.50362e-06
 Reference value :  4.50438e-06
 Reference value :  4.50523e-06
 Reference value :  4.50615e-06
 Reference value :  4.50711e-06
 Reference value :  4.50847e-06
 Reference value :  4.50978e-06
 Reference value :  4.51127e-06
 Reference value :  4.51298e-06
 Reference value :  4.51452e-06
 Reference value :  4.51599e-06
 Reference value :  4.51760e-06
 Reference value :  4.51927e-06
 Reference value :  4.52119e-06
 Reference value :  4.52501e-06
 Reference value :  4.53054e-06
 Reference value :  4.54159e-06
 Reference value :  4.56369e-06
 Reference value :  4.60751e-06
 Reference value :  4.69514e-06
 Reference value :  4.75010e-06
 Reference value :  4.75011e-06
 Reference value :  4.75013e-06
 Reference value :  4.75017e-06
 Reference value :  4.75020e-06
 Reference value :  4.75020e-06
 Reference value :  4.75020e-06
 Reference value :  4.75021e-06
 Reference value :  4.75021e-06
 Reference value :  4.75022e-06
 Reference value :  4.75025e-06
 Reference value :  4.75030e-06
 Reference value :  4.75039e-06
 Reference value :  4.75059e-06
 Reference value :  4.75092e-06
 Reference value :  4.75154e-06
 Reference value :  4.75216e-06
 Reference value :  4.75294e-06
 Reference value :  4.75375e-06
 Reference value :  4.75481e-06
 Reference value :  4.75574e-06
 Reference value :  4.75682e-06
 Reference value :  4.75777e-06
 Reference value :  4.75876e-06
 Reference value :  4.75990e-06
 Reference value :  4.76118e-06
 Reference value :  4.76373e-06
 Reference value :  4.76654e-06
 Reference value :  4.77106e-06
 Reference value :  4.77719e-06
 Reference value :  4.78943e-06
 Reference value :  4.81391e-06
 Reference value :  4.86288e-06
 Reference value :  4.96081e-06
 Reference value :  5.00000e-06
 Reference value :  5.00001e-06
 Reference value :  5.00003e-06
 Reference value :  5.00007e-06
 Reference value :  5.00010e-06
 Reference value :  5.00010e-06
 Reference value :  5.00011e-06
 Reference value :  5.00013e-06
 Reference value :  5.00016e-06
 Reference value :  5.00023e-06
 Reference value :  5.00037e-06
 Reference value :  5.00055e-06
 Reference value :  5.00092e-06
 Reference value :  5.00160e-06
 Reference value :  5.00223e-06
 Reference value :  5.00291e-06
 Reference value :  5.00364e-06
 Reference value :  5.00440e-06
 Reference value :  5.00525e-06
 Reference value :  5.00617e-06
 Reference value :  5.00719e-06
 Reference value :  5.00822e-06
 Reference value :  5.00909e-06
 Reference value :  5.01014e-06
 Reference value :  5.01115e-06
 Reference value :  5.01249e-06
 Reference value :  5.01444e-06
 Reference value :  5.01734e-06
 Reference value :  5.02026e-06
 Reference value :  5.02266e-06
 Reference value :  5.02460e-06
 Reference value :  5.02642e-06
 Reference value :  5.02845e-06
 Reference value :  5.03034e-06
 Reference value :  5.03277e-06
 Reference value :  5.03503e-06
 Reference value :  5.03848e-06
 Reference value :  5.04286e-06
 Reference value :  5.04868e-06
 Reference value :  5.05517e-06
 Reference value :  5.06372e-06
 Reference value :  5.07258e-06
 Reference value :  5.07882e-06
 Reference value :  5.08494e-06
 Reference value :  5.09239e-06
 Reference value :  5.09952e-06
 Reference value :  5.10649e-06
 Reference value :  5.11501e-06
 Reference value :  5.12538e-06
 Reference value :  5.14101e-06
 Reference value :  5.16057e-06
 Reference value :  5.18904e-06
 Reference value :  5.23518e-06
 Reference value :  5.25010e-06
 Reference value :  5.25011e-06
 Reference value :  5.25013e-06
 Reference value :  5.25017e-06
 Reference value :  5.25020e-06
 Reference value :  5.25020e-06
 Reference value :  5.25020e-06
 Reference value :  5.25021e-06
 Reference value :  5.25021e-06
 Reference value :  5.25022e-06
 Reference value :  5.25025e-06
 Reference value :  5.25030e-06
 Reference value :  5.25040e-06
 Reference value :  5.25059e-06
 Reference value :  5.25094e-06
 Reference value :  5.25154e-06
 Reference value :  5.25218e-06
 Reference value :  5.25294e-06
 Reference value :  5.25376e-06
 Reference value :  5.25482e-06
 Reference value :  5.25570e-06
 Reference value :  5.25673e-06
 Reference value :  5.25771e-06
 Reference value :  5.25873e-06
 Reference value :  5.26044e-06
 Reference value :  5.26204e-06
 Reference value :  5.26489e-06
 Reference value :  5.26800e-06
 Reference value :  5.27305e-06
 Reference value :  5.28231e-06
 Reference value :  5.30083e-06
 Reference value :  5.33777e-06
 Reference value :  5.41166e-06
 Reference value :  5.50000e-06
 Reference value :  5.50001e-06
 Reference value :  5.50003e-06
 Reference value :  5.50007e-06
 Reference value :  5.50010e-06
 Reference value :  5.50010e-06
 Reference value :  5.50011e-06
 Reference value :  5.50013e-06
 Reference value :  5.50016e-06
 Reference value :  5.50023e-06
 Reference value :  5.50037e-06
 Reference value :  5.50056e-06
 Reference value :  5.50093e-06
 Reference value :  5.50161e-06
 Reference value :  5.50223e-06
 Reference value :  5.50286e-06
 Reference value :  5.50357e-06
 Reference value :  5.50431e-06
 Reference value :  5.50516e-06
 Reference value :  5.50606e-06
 Reference value :  5.50711e-06
 Reference value :  5.50844e-06
 Reference value :  5.50981e-06
 Reference value :  5.51137e-06
 Reference value :  5.51290e-06
 Reference value :  5.51446e-06
 Reference value :  5.51592e-06
 Reference value :  5.51751e-06
 Reference value :  5.51920e-06
 Reference value :  5.52113e-06
 Reference value :  5.52489e-06
 Reference value :  5.53037e-06
 Reference value :  5.54134e-06
 Reference value :  5.56326e-06
 Reference value :  5.60537e-06
 Reference value :  5.68958e-06
 Reference value :  5.75010e-06
 Reference value :  5.75011e-06
 Reference value :  5.75013e-06
 Reference value :  5.75017e-06
 Reference value :  5.75020e-06
 Reference value :  5.75020e-06
 Reference value :  5.75020e-06
 Reference value :  5.75021e-06
 Reference value :  5.75021e-06
 Reference value :  5.75022e-06
 Reference value :  5.75025e-06
 Reference value :  5.75030e-06
 Reference value :  5.75039e-06
 Reference value :  5.75059e-06
 Reference value :  5.75093e-06
 Reference value :  5.75154e-06
 Reference value :  5.75216e-06
 Reference value :  5.75294e-06
 Reference value :  5.75375e-06
 Reference value :  5.75481e-06
 Reference value :  5.75574e-06
 Reference value :  5.75681e-06
 Reference value :  5.75775e-06
 Reference value :  5.75874e-06
 Reference value :  5.75987e-06
 Reference value :  5.76114e-06
 Reference value :  5.76244e-06
 Reference value :  5.76421e-06
 Reference value :  5.76647e-06
 Reference value :  5.76922e-06
 Reference value :  5.77292e-06
 Reference value :  5.77810e-06
 Reference value :  5.78848e-06
 Reference value :  5.80672e-06
 Reference value :  5.84321e-06
 Reference value :  5.86908e-06
 Reference value :  5.89245e-06
 Reference value :  5.90475e-06
 Reference value :  5.91941e-06
 Reference value :  5.93567e-06
 Reference value :  5.95059e-06
 Reference value :  5.97110e-06
 Reference value :  5.99295e-06
 Reference value :  6.00000e-06
 Reference value :  6.00001e-06
 Reference value :  6.00003e-06
 Reference value :  6.00007e-06
 Reference value :  6.00010e-06
 Reference value :  6.00010e-06
 Reference value :  6.00011e-06
 Reference value :  6.00013e-06
 Reference value :  6.00016e-06
 Reference value :  6.00023e-06
 Reference value :  6.00037e-06
 Reference value :  6.00056e-06
 Reference value :  6.00093e-06
 Reference value :  6.00161e-06
 Reference value :  6.00223e-06
 Reference value :  6.00291e-06
 Reference value :  6.00362e-06
 Reference value :  6.00438e-06
 Reference value :  6.00523e-06
 Reference value :  6.00614e-06
 Reference value :  6.00709e-06
 Reference value :  6.00811e-06
 Reference value :  6.00896e-06
 Reference value :  6.00996e-06
 Reference value :  6.01098e-06
 Reference value :  6.01227e-06
 Reference value :  6.01422e-06
 Reference value :  6.01722e-06
 Reference value :  6.02027e-06
 Reference value :  6.02267e-06
 Reference value :  6.02472e-06
 Reference value :  6.02667e-06
 Reference value :  6.02868e-06
 Reference value :  6.03068e-06
 Reference value :  6.03316e-06
 Reference value :  6.03543e-06
 Reference value :  6.03897e-06
 Reference value :  6.04349e-06
 Reference value :  6.04858e-06
 Reference value :  6.05331e-06
 Reference value :  6.05765e-06
 Reference value :  6.06195e-06
 Reference value :  6.06660e-06
 Reference value :  6.07301e-06
 Reference value :  6.07937e-06
 Reference value :  6.08585e-06
 Reference value :  6.09348e-06
 Reference value :  6.10848e-06
 Reference value :  6.12219e-06
 Reference value :  6.14961e-06
 Reference value :  6.19577e-06
 Reference value :  6.25010e-06
 Reference value :  6.25011e-06
 Reference value :  6.25013e-06
 Reference value :  6.25017e-06
 Reference value :  6.25020e-06
 Reference value :  6.25020e-06
 Reference value :  6.25020e-06
 Reference value :  6.25021e-06
 Reference value :  6.25021e-06
 Reference value :  6.25022e-06
 Reference value :  6.25025e-06
 Reference value :  6.25030e-06
 Reference value :  6.25040e-06
 Reference value :  6.25059e-06
 Reference value :  6.25094e-06
 Reference value :  6.25154e-06
 Reference value :  6.25218e-06
 Reference value :  6.25294e-06
 Reference value :  6.25377e-06
 Reference value :  6.25483e-06
 Reference value :  6.25570e-06
 Reference value :  6.25671e-06
 Reference value :  6.25768e-06
 Reference value :  6.25869e-06
 Reference value :  6.26039e-06
 Reference value :  6.26198e-06
 Reference value :  6.26481e-06
 Reference value :  6.26788e-06
 Reference value :  6.27290e-06
 Reference value :  6.28178e-06
 Reference value :  6.29954e-06
 Reference value :  6.33504e-06
 Reference value :  6.40606e-06
 Reference value :  6.50000e-06
 Reference value :  6.50001e-06
 Reference value :  6.50003e-06
 Reference value :  6.50007e-06
 Reference value :  6.50010e-06
 Reference value :  6.50010e-06
 Reference value :  6.50011e-06
 Reference value :  6.50013e-06
 Reference value :  6.50016e-06
 Reference value :  6.50023e-06
 Reference value :  6.50037e-06
 Reference value :  6.50056e-06
 Reference value :  6.50093e-06
 Reference value :  6.50161e-06
 Reference value :  6.50223e-06
 Reference value :  6.50286e-06
 Reference value :  6.50357e-06
 Reference value :  6.50431e-06
 Reference value :  6.50515e-06
 Reference value :  6.50606e-06
 Reference value :  6.50701e-06
 Reference value :  6.50838e-06
 Reference value :  6.50964e-06
 Reference value :  6.51122e-06
 Reference value :  6.51252e-06
 Reference value :  6.51392e-06
 Reference value :  6.51526e-06
 Reference value :  6.51687e-06
 Reference value :  6.51854e-06
 Reference value :  6.52034e-06
 Reference value :  6.52394e-06
 Reference value :  6.53113e-06
 Reference value :  6.54428e-06
 Reference value :  6.57057e-06
 Reference value :  6.62314e-06
 Reference value :  6.72830e-06
 Reference value :  6.75010e-06
 Reference value :  6.75011e-06
 Reference value :  6.75013e-06
 Reference value :  6.75017e-06
 Reference value :  6.75020e-06
 Reference value :  6.75020e-06
 Reference value :  6.75020e-06
 Reference value :  6.75021e-06
 Reference value :  6.75021e-06
 Reference value :  6.75022e-06
 Reference value :  6.75025e-06
 Reference value :  6.75030e-06
 Reference value :  6.75039e-06
 Reference value :  6.75059e-06
 Reference value :  6.75093e-06
 Reference value :  6.75154e-06
 Reference value :  6.75216e-06
 Reference value :  6.75294e-06
 Reference value :  6.75375e-06
 Reference value :  6.75481e-06
 Reference value :  6.75574e-06
 Reference value :  6.75682e-06
 Reference value :  6.75776e-06
 Reference value :  6.75876e-06
 Reference value :  6.75989e-06
 Reference value :  6.76117e-06
 Reference value :  6.76248e-06
 Reference value :  6.76425e-06
 Reference value :  6.76654e-06
 Reference value :  6.76931e-06
 Reference value :  6.77304e-06
 Reference value :  6.77826e-06
 Reference value :  6.78871e-06
 Reference value :  6.80793e-06
 Reference value :  6.84638e-06
 Reference value :  6.92326e-06
 Reference value :  7.00000e-06
 Reference value :  7.00001e-06
 Reference value :  7.00003e-06
 Reference value :  7.00007e-06
 Reference value :  7.00010e-06
 Reference value :  7.00010e-06
 Reference value :  7.00011e-06
 Reference value :  7.00013e-06
 Reference value :  7.00016e-06
 Reference value :  7.00023e-06
 Reference value :  7.00037e-06
 Reference value :  7.00055e-06
 Reference value :  7.00092e-06
 Reference value :  7.00160e-06
 Reference value :  7.00223e-06
 Reference value :  7.00291e-06
 Reference value :  7.00363e-06
 Reference value :  7.00438e-06
 Reference value :  7.00522e-06
 Reference value :  7.00613e-06
 Reference value :  7.00697e-06
 Reference value :  7.00786e-06
 Reference value :  7.00876e-06
 Reference value :  7.00973e-06
 Reference value :  7.01072e-06
 Reference value :  7.01207e-06
 Reference value :  7.01371e-06
 Reference value :  7.01601e-06
 Reference value :  7.01763e-06
 Reference value :  7.01941e-06
 Reference value :  7.02109e-06
 Reference value :  7.02287e-06
 Reference value :  7.02445e-06
 Reference value :  7.02610e-06
 Reference value :  7.02789e-06
 Reference value :  7.02964e-06
 Reference value :  7.03131e-06
 Reference value :  7.03338e-06
 Reference value :  7.03610e-06
 Reference value :  7.03897e-06
 Reference value :  7.04434e-06
 Reference value :  7.05048e-06
 Reference value :  7.05724e-06
 Reference value :  7.06655e-06
 Reference value :  7.08515e-06
 Reference value :  7.11479e-06
 Reference value :  7.16617e-06
 Reference value :  7.24426e-06
 Reference value :  7.25010e-06
 Reference value :  7.25011e-06
 Reference value :  7.25013e-06
 Reference value :  7.25017e-06
 Reference value :  7.25020e-06
 Reference value :  7.25020e-06
 Reference value :  7.25020e-06
 Reference value :  7.25021e-06
 Reference value :  7.25021e-06
 Reference value :  7.25022e-06
 Reference value :  7.25025e-06
 Reference value :  7.25030e-06
 Reference value :  7.25039e-06
 Reference value :  7.25059e-06
 Reference value :  7.25093e-06
 Reference value :  7.25154e-06
 Reference value :  7.25217e-06
 Reference value :  7.25294e-06
 Reference value :  7.25375e-06
 Reference value :  7.25482e-06
 Reference value :  7.25571e-06
 Reference value :  7.25674e-06
 Reference value :  7.25774e-06
 Reference value :  7.25877e-06
 Reference value :  7.26048e-06
 Reference value :  7.26211e-06
 Reference value :  7.26497e-06
 Reference value :  7.26813e-06
 Reference value :  7.27320e-06
 Reference value :  7.28296e-06
 Reference value :  7.30234e-06
 Reference value :  7.34023e-06
 Reference value :  7.41600e-06
 Reference value :  7.50000e-06
 Reference value :  7.50001e-06
 Reference value :  7.50003e-06
 Reference value :  7.50007e-06
 Reference value :  7.50010e-06
 Reference value :  7.50010e-06
 Reference value :  7.50011e-06
 Reference value :  7.50013e-06
 Reference value :  7.50016e-06
 Reference value :  7.50023e-06
 Reference value :  7.50037e-06
 Reference value :  7.50056e-06
 Reference value :  7.50093e-06
 Reference value :  7.50152e-06
 Reference value :  7.50214e-06
 Reference value :  7.50278e-06
 Reference value :  7.50356e-06
 Reference value :  7.50429e-06
 Reference value :  7.50514e-06
 Reference value :  7.50604e-06
 Reference value :  7.50709e-06
 Reference value :  7.50844e-06
 Reference value :  7.50981e-06
 Reference value :  7.51141e-06
 Reference value :  7.51279e-06
 Reference value :  7.51424e-06
 Reference value :  7.51568e-06
 Reference value :  7.51737e-06
 Reference value :  7.51917e-06
 Reference value :  7.52104e-06
 Reference value :  7.52479e-06
 Reference value :  7.53229e-06
 Reference value :  7.54517e-06
 Reference value :  7.57094e-06
 Reference value :  7.62247e-06
 Reference value :  7.72554e-06
 Reference value :  7.75010e-06
 Reference value :  7.75011e-06
 Reference value :  7.75013e-06
 Reference value :  7.75017e-06
 Reference value :  7.75020e-06
 Reference value :  7.75020e-06
 Reference value :  7.75020e-06
 Reference value :  7.75021e-06
 Reference value :  7.75021e-06
 Reference value :  7.75022e-06
 Reference value :  7.75025e-06
 Reference value :  7.75030e-06
 Reference value :  7.75039e-06
 Reference value :  7.75059e-06
 Reference value :  7.75093e-06
 Reference value :  7.75154e-06
 Reference value :  7.75217e-06
 Reference value :  7.75294e-06
 Reference value :  7.75375e-06
 Reference value :  7.75482e-06
 Reference value :  7.75571e-06
 Reference value :  7.75675e-06
 Reference value :  7.75766e-06
 Reference value :  7.75864e-06
 Reference value :  7.75975e-06
 Reference value :  7.76100e-06
 Reference value :  7.76224e-06
 Reference value :  7.76408e-06
 Reference value :  7.76607e-06
 Reference value :  7.76883e-06
 Reference value :  7.77224e-06
 Reference value :  7.77719e-06
 Reference value :  7.78710e-06
 Reference value :  7.80069e-06
 Reference value :  7.82786e-06
 Reference value :  7.88220e-06
 Reference value :  7.99089e-06
 Reference value :  8.00000e-06
 Reference value :  8.00001e-06
 Reference value :  8.00003e-06
 Reference value :  8.00007e-06
 Reference value :  8.00010e-06
 Reference value :  8.00010e-06
 Reference value :  8.00011e-06
 Reference value :  8.00013e-06
 Reference value :  8.00016e-06
 Reference value :  8.00023e-06
 Reference value :  8.00037e-06
 Reference value :  8.00056e-06
 Reference value :  8.00093e-06
 Reference value :  8.00152e-06
 Reference value :  8.00214e-06
 Reference value :  8.00283e-06
 Reference value :  8.00356e-06
 Reference value :  8.00432e-06
 Reference value :  8.00515e-06
 Reference value :  8.00606e-06
 Reference value :  8.00699e-06
 Reference value :  8.00783e-06
 Reference value :  8.00872e-06
 Reference value :  8.00968e-06
 Reference value :  8.01066e-06
 Reference value :  8.01208e-06
 Reference value :  8.01354e-06
 Reference value :  8.01572e-06
 Reference value :  8.01722e-06
 Reference value :  8.01891e-06
 Reference value :  8.02104e-06
 Reference value :  8.02308e-06
 Reference value :  8.02567e-06
 Reference value :  8.02817e-06
 Reference value :  8.03191e-06
 Reference value :  8.03540e-06
 Reference value :  8.04233e-06
 Reference value :  8.05096e-06
 Reference value :  8.06050e-06
 Reference value :  8.07388e-06
 Reference value :  8.08662e-06
 Reference value :  8.09626e-06
 Reference value :  8.10537e-06
 Reference value :  8.12145e-06
 Reference value :  8.13622e-06
 Reference value :  8.15529e-06
 Reference value :  8.17875e-06
 Reference value :  8.20419e-06
 Reference value :  8.25010e-06
 Reference value :  8.25011e-06
 Reference value :  8.25013e-06
 Reference value :  8.25017e-06
 Reference value :  8.25020e-06
 Reference value :  8.25020e-06
 Reference value :  8.25020e-06
 Reference value :  8.25021e-06
 Reference value :  8.25021e-06
 Reference value :  8.25022e-06
 Reference value :  8.25025e-06
 Reference value :  8.25030e-06
 Reference value :  8.25039e-06
 Reference value :  8.25059e-06
 Reference value :  8.25097e-06
 Reference value :  8.25154e-06
 Reference value :  8.25221e-06
 Reference value :  8.25295e-06
 Reference value :  8.25379e-06
 Reference value :  8.25485e-06
 Reference value :  8.25616e-06
 Reference value :  8.25753e-06
 Reference value :  8.25911e-06
 Reference value :  8.26083e-06
 Reference value :  8.26340e-06
 Reference value :  8.26637e-06
 Reference value :  8.27042e-06
 Reference value :  8.27626e-06
 Reference value :  8.28792e-06
 Reference value :  8.31126e-06
 Reference value :  8.35761e-06
 Reference value :  8.45033e-06
 Reference value :  8.50000e-06
No. of Data Rows : 1350
ngspice-44 done
