
Note: Compatibility modes selected: hs a


Circuit: ** sch_path: /home/ece/cace/sar-adc-using-sky130-pdk/runs/run_2025-09-12_21-01-12/parameters/dnl/run_3/sar_output_dnl.sch

option SCALE: Scale is set to 1e-06 for instance and model parameters
option SCALE: Scale is set to 1e-06 for instance and model parameters
option SCALE: Scale is set to 1e-06 for instance and model parameters
option SCALE: Scale is set to 1e-06 for instance and model parameters
Doing analysis at TEMP = 27.000000 and TNOM = 27.000000

Using KLU as Direct Linear Solver
Operating point simulation skipped by 'uic',
  now using transient initial conditions.
 Reference value :  1.00000e-12
 Reference value :  1.08400e-12
 Reference value :  2.30456e-12
 Reference value :  9.74551e-12
 Reference value :  6.33172e-11
 Reference value :  1.39811e-10
 Reference value :  4.58299e-10
 Reference value :  1.87933e-09
 Reference value :  5.06357e-09
 Reference value :  8.66765e-09
 Reference value :  1.19747e-08
 Reference value :  1.56759e-08
 Reference value :  2.69306e-08
 Reference value :  5.10691e-08
 Reference value :  1.49819e-07
 Reference value :  2.26433e-07
 Reference value :  2.50110e-07
 Reference value :  2.50200e-07
 Reference value :  2.50252e-07
 Reference value :  2.50747e-07
 Reference value :  2.53035e-07
 Reference value :  2.54298e-07
 Reference value :  2.55550e-07
 Reference value :  2.58514e-07
 Reference value :  2.62902e-07
 Reference value :  2.84443e-07
 Reference value :  3.99842e-07
 Reference value :  5.00010e-07
 Reference value :  5.00070e-07
 Reference value :  5.00124e-07
 Reference value :  5.00220e-07
 Reference value :  5.00537e-07
 Reference value :  5.00857e-07
 Reference value :  5.01584e-07
 Reference value :  5.02505e-07
 Reference value :  5.03007e-07
 Reference value :  5.04130e-07
 Reference value :  5.05654e-07
 Reference value :  5.08638e-07
 Reference value :  5.09859e-07
 Reference value :  5.12586e-07
 Reference value :  5.17966e-07
 Reference value :  5.47365e-07
 Reference value :  7.50100e-07
 Reference value :  7.50170e-07
 Reference value :  7.50224e-07
 Reference value :  7.50448e-07
 Reference value :  7.51576e-07
 Reference value :  7.52526e-07
 Reference value :  7.53780e-07
 Reference value :  7.54923e-07
 Reference value :  7.56264e-07
 Reference value :  7.58956e-07
 Reference value :  7.64956e-07
 Reference value :  7.87848e-07
 Reference value :  1.00000e-06
 Reference value :  1.00007e-06
 Reference value :  1.00012e-06
 Reference value :  1.00035e-06
 Reference value :  1.00086e-06
 Reference value :  1.00163e-06
 Reference value :  1.00258e-06
 Reference value :  1.00363e-06
 Reference value :  1.00519e-06
 Reference value :  1.00710e-06
 Reference value :  1.00921e-06
 Reference value :  1.01010e-06
 Reference value :  1.01198e-06
 Reference value :  1.01373e-06
 Reference value :  1.01530e-06
 Reference value :  1.01713e-06
 Reference value :  1.01916e-06
 Reference value :  1.02273e-06
 Reference value :  1.05919e-06
 Reference value :  1.25010e-06
 Reference value :  1.25017e-06
 Reference value :  1.25026e-06
 Reference value :  1.25070e-06
 Reference value :  1.25203e-06
 Reference value :  1.25325e-06
 Reference value :  1.25435e-06
 Reference value :  1.25655e-06
 Reference value :  1.26630e-06
 Reference value :  1.36193e-06
 Reference value :  1.46729e-06
 Reference value :  1.50001e-06
 Reference value :  1.50010e-06
 Reference value :  1.50022e-06
 Reference value :  1.50086e-06
 Reference value :  1.50163e-06
 Reference value :  1.50306e-06
 Reference value :  1.50486e-06
 Reference value :  1.50628e-06
 Reference value :  1.50792e-06
 Reference value :  1.51094e-06
 Reference value :  1.51902e-06
 Reference value :  1.55893e-06
 Reference value :  1.60117e-06
 Reference value :  1.75011e-06
 Reference value :  1.75020e-06
 Reference value :  1.75032e-06
 Reference value :  1.75110e-06
 Reference value :  1.75252e-06
 Reference value :  1.75378e-06
 Reference value :  1.75491e-06
 Reference value :  1.75637e-06
 Reference value :  1.76459e-06
 Reference value :  1.84946e-06
 Reference value :  2.00001e-06
 Reference value :  2.00010e-06
 Reference value :  2.00016e-06
 Reference value :  2.00054e-06
 Reference value :  2.00086e-06
 Reference value :  2.00163e-06
 Reference value :  2.00307e-06
 Reference value :  2.00418e-06
 Reference value :  2.00524e-06
 Reference value :  2.00732e-06
 Reference value :  2.01028e-06
 Reference value :  2.01341e-06
 Reference value :  2.01558e-06
 Reference value :  2.01756e-06
 Reference value :  2.01988e-06
 Reference value :  2.02950e-06
 Reference value :  2.03875e-06
 Reference value :  2.04588e-06
 Reference value :  2.05258e-06
 Reference value :  2.06481e-06
 Reference value :  2.08468e-06
 Reference value :  2.15580e-06
 Reference value :  2.25013e-06
 Reference value :  2.25022e-06
 Reference value :  2.25070e-06
 Reference value :  2.25203e-06
 Reference value :  2.25375e-06
 Reference value :  2.25570e-06
 Reference value :  2.25964e-06
 Reference value :  2.31239e-06
 Reference value :  2.50003e-06
 Reference value :  2.50012e-06
 Reference value :  2.50054e-06
 Reference value :  2.50159e-06
 Reference value :  2.50356e-06
 Reference value :  2.50562e-06
 Reference value :  2.50695e-06
 Reference value :  2.50986e-06
 Reference value :  2.51450e-06
 Reference value :  2.57175e-06
 Reference value :  2.75013e-06
 Reference value :  2.75021e-06
 Reference value :  2.75045e-06
 Reference value :  2.75157e-06
 Reference value :  2.75325e-06
 Reference value :  2.75436e-06
 Reference value :  2.75623e-06
 Reference value :  2.76046e-06
 Reference value :  2.78502e-06
 Reference value :  3.00000e-06
 Reference value :  3.00007e-06
 Reference value :  3.00012e-06
 Reference value :  3.00035e-06
 Reference value :  3.00086e-06
 Reference value :  3.00163e-06
 Reference value :  3.00258e-06
 Reference value :  3.00364e-06
 Reference value :  3.00471e-06
 Reference value :  3.00574e-06
 Reference value :  3.00807e-06
 Reference value :  3.01010e-06
 Reference value :  3.01197e-06
 Reference value :  3.01371e-06
 Reference value :  3.01526e-06
 Reference value :  3.01803e-06
 Reference value :  3.02263e-06
 Reference value :  3.05521e-06
 Reference value :  3.14412e-06
 Reference value :  3.25010e-06
 Reference value :  3.25017e-06
 Reference value :  3.25022e-06
 Reference value :  3.25045e-06
 Reference value :  3.25157e-06
 Reference value :  3.25251e-06
 Reference value :  3.25376e-06
 Reference value :  3.25499e-06
 Reference value :  3.25796e-06
 Reference value :  3.27213e-06
 Reference value :  3.36284e-06
 Reference value :  3.50001e-06
 Reference value :  3.50010e-06
 Reference value :  3.50016e-06
 Reference value :  3.50054e-06
 Reference value :  3.50119e-06
 Reference value :  3.50204e-06
 Reference value :  3.50300e-06
 Reference value :  3.50488e-06
 Reference value :  3.50625e-06
 Reference value :  3.50886e-06
 Reference value :  3.51110e-06
 Reference value :  3.51907e-06
 Reference value :  3.56916e-06
 Reference value :  3.75010e-06
 Reference value :  3.75013e-06
 Reference value :  3.75020e-06
 Reference value :  3.75022e-06
 Reference value :  3.75032e-06
 Reference value :  3.75109e-06
 Reference value :  3.75203e-06
 Reference value :  3.75324e-06
 Reference value :  3.75377e-06
 Reference value :  3.75549e-06
 Reference value :  3.75704e-06
 Reference value :  3.76208e-06
 Reference value :  3.80286e-06
 Reference value :  4.00007e-06
 Reference value :  4.00022e-06
 Reference value :  4.00119e-06
 Reference value :  4.00258e-06
 Reference value :  4.00419e-06
 Reference value :  4.00574e-06
 Reference value :  4.00807e-06
 Reference value :  4.01010e-06
 Reference value :  4.01197e-06
 Reference value :  4.01439e-06
 Reference value :  4.01616e-06
 Reference value :  4.01802e-06
 Reference value :  4.02566e-06
 Reference value :  4.04786e-06
 Reference value :  4.06922e-06
 Reference value :  4.08894e-06
 Reference value :  4.09644e-06
 Reference value :  4.11060e-06
 Reference value :  4.14941e-06
 Reference value :  4.18409e-06
 Reference value :  4.19843e-06
 Reference value :  4.22671e-06
 Reference value :  4.25011e-06
 Reference value :  4.25020e-06
 Reference value :  4.25026e-06
 Reference value :  4.25070e-06
 Reference value :  4.25203e-06
 Reference value :  4.25375e-06
 Reference value :  4.25572e-06
 Reference value :  4.25975e-06
 Reference value :  4.28644e-06
 Reference value :  4.40056e-06
 Reference value :  4.50003e-06
 Reference value :  4.50011e-06
 Reference value :  4.50022e-06
 Reference value :  4.50086e-06
 Reference value :  4.50159e-06
 Reference value :  4.50300e-06
 Reference value :  4.50411e-06
 Reference value :  4.50561e-06
 Reference value :  4.50625e-06
 Reference value :  4.50795e-06
 Reference value :  4.50986e-06
 Reference value :  4.51451e-06
 Reference value :  4.56910e-06
 Reference value :  4.75011e-06
 Reference value :  4.75020e-06
 Reference value :  4.75032e-06
 Reference value :  4.75109e-06
 Reference value :  4.75203e-06
 Reference value :  4.75324e-06
 Reference value :  4.75436e-06
 Reference value :  4.75548e-06
 Reference value :  4.75623e-06
 Reference value :  4.75889e-06
 Reference value :  4.76478e-06
 Reference value :  4.78468e-06
 Reference value :  4.90820e-06
 Reference value :  5.00007e-06
 Reference value :  5.00016e-06
 Reference value :  5.00054e-06
 Reference value :  5.00119e-06
 Reference value :  5.00209e-06
 Reference value :  5.00308e-06
 Reference value :  5.00419e-06
 Reference value :  5.00471e-06
 Reference value :  5.00519e-06
 Reference value :  5.00640e-06
 Reference value :  5.00807e-06
 Reference value :  5.01010e-06
 Reference value :  5.01197e-06
 Reference value :  5.01370e-06
 Reference value :  5.01525e-06
 Reference value :  5.01802e-06
 Reference value :  5.02258e-06
 Reference value :  5.02987e-06
 Reference value :  5.03867e-06
 Reference value :  5.04509e-06
 Reference value :  5.05529e-06
 Reference value :  5.10183e-06
 Reference value :  5.20325e-06
 Reference value :  5.25013e-06
 Reference value :  5.25021e-06
 Reference value :  5.25045e-06
 Reference value :  5.25156e-06
 Reference value :  5.25251e-06
 Reference value :  5.25377e-06
 Reference value :  5.25501e-06
 Reference value :  5.25803e-06
 Reference value :  5.27240e-06
 Reference value :  5.36460e-06
 Reference value :  5.50003e-06
 Reference value :  5.50011e-06
 Reference value :  5.50022e-06
 Reference value :  5.50086e-06
 Reference value :  5.50163e-06
 Reference value :  5.50258e-06
 Reference value :  5.50363e-06
 Reference value :  5.50568e-06
 Reference value :  5.50630e-06
 Reference value :  5.50794e-06
 Reference value :  5.50982e-06
 Reference value :  5.51897e-06
 Reference value :  5.75010e-06
 Reference value :  5.75017e-06
 Reference value :  5.75026e-06
 Reference value :  5.75109e-06
 Reference value :  5.75203e-06
 Reference value :  5.75324e-06
 Reference value :  5.75436e-06
 Reference value :  5.75548e-06
 Reference value :  5.75724e-06
 Reference value :  5.76998e-06
 Reference value :  5.93535e-06
 Reference value :  6.00007e-06
 Reference value :  6.00016e-06
 Reference value :  6.00035e-06
 Reference value :  6.00086e-06
 Reference value :  6.00163e-06
 Reference value :  6.00307e-06
 Reference value :  6.00473e-06
 Reference value :  6.00580e-06
 Reference value :  6.00866e-06
 Reference value :  6.01030e-06
 Reference value :  6.01341e-06
 Reference value :  6.01455e-06
 Reference value :  6.01654e-06
 Reference value :  6.01873e-06
 Reference value :  6.02436e-06
 Reference value :  6.03669e-06
 Reference value :  6.11030e-06
 Reference value :  6.25011e-06
 Reference value :  6.25020e-06
 Reference value :  6.25032e-06
 Reference value :  6.25109e-06
 Reference value :  6.25202e-06
 Reference value :  6.25323e-06
 Reference value :  6.25438e-06
 Reference value :  6.25646e-06
 Reference value :  6.27246e-06
 Reference value :  6.50000e-06
 Reference value :  6.50010e-06
 Reference value :  6.50022e-06
 Reference value :  6.50086e-06
 Reference value :  6.50163e-06
 Reference value :  6.50306e-06
 Reference value :  6.50489e-06
 Reference value :  6.50630e-06
 Reference value :  6.50794e-06
 Reference value :  6.51094e-06
 Reference value :  6.52651e-06
 Reference value :  6.75010e-06
 Reference value :  6.75017e-06
 Reference value :  6.75022e-06
 Reference value :  6.75032e-06
 Reference value :  6.75070e-06
 Reference value :  6.75156e-06
 Reference value :  6.75251e-06
 Reference value :  6.75376e-06
 Reference value :  6.75490e-06
 Reference value :  6.75633e-06
 Reference value :  6.76123e-06
 Reference value :  6.80272e-06
 Reference value :  7.00001e-06
 Reference value :  7.00010e-06
 Reference value :  7.00016e-06
 Reference value :  7.00054e-06
 Reference value :  7.00119e-06
 Reference value :  7.00210e-06
 Reference value :  7.00307e-06
 Reference value :  7.00418e-06
 Reference value :  7.00524e-06
 Reference value :  7.00732e-06
 Reference value :  7.01029e-06
 Reference value :  7.01341e-06
 Reference value :  7.01455e-06
 Reference value :  7.01654e-06
 Reference value :  7.01875e-06
 Reference value :  7.02443e-06
 Reference value :  7.03465e-06
 Reference value :  7.03846e-06
 Reference value :  7.04650e-06
 Reference value :  7.06557e-06
 Reference value :  7.09366e-06
 Reference value :  7.18699e-06
 Reference value :  7.25013e-06
 Reference value :  7.25021e-06
 Reference value :  7.25032e-06
 Reference value :  7.25109e-06
 Reference value :  7.25202e-06
 Reference value :  7.25323e-06
 Reference value :  7.25375e-06
 Reference value :  7.25502e-06
 Reference value :  7.25647e-06
 Reference value :  7.26254e-06
 Reference value :  7.28584e-06
 Reference value :  7.50000e-06
 Reference value :  7.50007e-06
 Reference value :  7.50012e-06
 Reference value :  7.50035e-06
 Reference value :  7.50086e-06
 Reference value :  7.50159e-06
 Reference value :  7.50251e-06
 Reference value :  7.50356e-06
 Reference value :  7.50490e-06
 Reference value :  7.50625e-06
 Reference value :  7.50795e-06
 Reference value :  7.50986e-06
 Reference value :  7.51905e-06
 Reference value :  7.73940e-06
 Reference value :  7.75013e-06
 Reference value :  7.75022e-06
 Reference value :  7.75070e-06
 Reference value :  7.75202e-06
 Reference value :  7.75376e-06
 Reference value :  7.75490e-06
 Reference value :  7.75622e-06
 Reference value :  7.75888e-06
 Reference value :  7.76471e-06
 Reference value :  7.80101e-06
 Reference value :  8.00001e-06
 Reference value :  8.00010e-06
 Reference value :  8.00016e-06
 Reference value :  8.00054e-06
 Reference value :  8.00119e-06
 Reference value :  8.00209e-06
 Reference value :  8.00308e-06
 Reference value :  8.00415e-06
 Reference value :  8.00515e-06
 Reference value :  8.00703e-06
 Reference value :  8.00859e-06
 Reference value :  8.01008e-06
 Reference value :  8.01181e-06
 Reference value :  8.01726e-06
 Reference value :  8.02792e-06
 Reference value :  8.04778e-06
 Reference value :  8.11633e-06
 Reference value :  8.13909e-06
 Reference value :  8.15293e-06
 Reference value :  8.21569e-06
 Reference value :  8.25011e-06
 Reference value :  8.25020e-06
 Reference value :  8.25026e-06
 Reference value :  8.25070e-06
 Reference value :  8.25156e-06
 Reference value :  8.25251e-06
 Reference value :  8.25392e-06
 Reference value :  8.25675e-06
 Reference value :  8.26013e-06
 Reference value :  8.27427e-06
 Reference value :  8.37880e-06
 Reference value :  8.50000e-06
 Reference value :  8.50000e-06
 Reference value :  8.50000e-06
 Reference value :  8.50001e-06
 Reference value :  8.50004e-06
 Reference value :  8.50011e-06
 Reference value :  8.50018e-06
 Reference value :  8.50073e-06
 Reference value :  8.50162e-06
 Reference value :  8.50254e-06
 Reference value :  8.50359e-06
 Reference value :  8.50463e-06
 Reference value :  8.50582e-06
 Reference value :  8.51229e-06
 Reference value :  8.52285e-06
 Reference value :  8.52894e-06
 Reference value :  8.53320e-06
 Reference value :  8.53588e-06
 Reference value :  8.54088e-06
 Reference value :  8.54468e-06
 Reference value :  8.55242e-06
 Reference value :  8.56776e-06
 Reference value :  8.62291e-06
 Reference value :  8.72095e-06
 Reference value :  8.75011e-06
 Reference value :  8.75020e-06
 Reference value :  8.75032e-06
 Reference value :  8.75156e-06
 Reference value :  8.75251e-06
 Reference value :  8.75375e-06
 Reference value :  8.75499e-06
 Reference value :  8.75644e-06
 Reference value :  8.76250e-06
 Reference value :  8.78527e-06
 Reference value :  8.80253e-06
 Reference value :  8.82091e-06
 Reference value :  8.83401e-06
 Reference value :  8.84442e-06
 Reference value :  8.86212e-06
 Reference value :  8.87649e-06
 Reference value :  8.89943e-06
 Reference value :  8.93920e-06
 Reference value :  9.00001e-06
 Reference value :  9.00007e-06
 Reference value :  9.00011e-06
 Reference value :  9.00016e-06
 Reference value :  9.00035e-06
 Reference value :  9.00086e-06
 Reference value :  9.00158e-06
 Reference value :  9.00250e-06
 Reference value :  9.00298e-06
 Reference value :  9.00408e-06
 Reference value :  9.00700e-06
 Reference value :  9.00990e-06
 Reference value :  9.01263e-06
 Reference value :  9.01590e-06
 Reference value :  9.02557e-06
 Reference value :  9.07998e-06
 Reference value :  9.25011e-06
 Reference value :  9.25017e-06
 Reference value :  9.25021e-06
 Reference value :  9.25026e-06
 Reference value :  9.25045e-06
 Reference value :  9.25109e-06
 Reference value :  9.25203e-06
 Reference value :  9.25323e-06
 Reference value :  9.25375e-06
 Reference value :  9.25545e-06
 Reference value :  9.25755e-06
 Reference value :  9.25937e-06
 Reference value :  9.26934e-06
 Reference value :  9.34160e-06
 Reference value :  9.50003e-06
 Reference value :  9.50012e-06
 Reference value :  9.50054e-06
 Reference value :  9.50119e-06
 Reference value :  9.50208e-06
 Reference value :  9.50307e-06
 Reference value :  9.50469e-06
 Reference value :  9.50571e-06
 Reference value :  9.50803e-06
 Reference value :  9.51006e-06
 Reference value :  9.51190e-06
 Reference value :  9.51362e-06
 Reference value :  9.51516e-06
 Reference value :  9.51795e-06
 Reference value :  9.52230e-06
 Reference value :  9.55090e-06
 Reference value :  9.68157e-06
 Reference value :  9.75013e-06
 Reference value :  9.75022e-06
 Reference value :  9.75070e-06
 Reference value :  9.75202e-06
 Reference value :  9.75376e-06
 Reference value :  9.75498e-06
 Reference value :  9.75953e-06
 Reference value :  9.81032e-06
 Reference value :  9.96202e-06
 Reference value :  1.00000e-05
 Reference value :  1.00001e-05
 Reference value :  1.00003e-05
 Reference value :  1.00009e-05
 Reference value :  1.00021e-05
 Reference value :  1.00031e-05
 Reference value :  1.00049e-05
 Reference value :  1.00063e-05
 Reference value :  1.00080e-05
 Reference value :  1.00109e-05
 Reference value :  1.00415e-05
 Reference value :  1.01386e-05
 Reference value :  1.02501e-05
 Reference value :  1.02502e-05
 Reference value :  1.02504e-05
 Reference value :  1.02516e-05
 Reference value :  1.02525e-05
 Reference value :  1.02538e-05
 Reference value :  1.02549e-05
 Reference value :  1.02563e-05
 Reference value :  1.02590e-05
 Reference value :  1.02810e-05
 Reference value :  1.05000e-05
 Reference value :  1.05001e-05
 Reference value :  1.05001e-05
 Reference value :  1.05003e-05
 Reference value :  1.05009e-05
 Reference value :  1.05016e-05
 Reference value :  1.05026e-05
 Reference value :  1.05031e-05
 Reference value :  1.05042e-05
 Reference value :  1.05052e-05
 Reference value :  1.05065e-05
 Reference value :  1.05087e-05
 Reference value :  1.05103e-05
 Reference value :  1.05119e-05
 Reference value :  1.05145e-05
 Reference value :  1.05165e-05
 Reference value :  1.05187e-05
 Reference value :  1.05219e-05
 Reference value :  1.05347e-05
 Reference value :  1.05389e-05
 Reference value :  1.05461e-05
 Reference value :  1.05529e-05
 Reference value :  1.05607e-05
 Reference value :  1.05721e-05
 Reference value :  1.05853e-05
 Reference value :  1.06255e-05
 Reference value :  1.07501e-05
 Reference value :  1.07502e-05
 Reference value :  1.07502e-05
 Reference value :  1.07504e-05
 Reference value :  1.07511e-05
 Reference value :  1.07520e-05
 Reference value :  1.07532e-05
 Reference value :  1.07537e-05
 Reference value :  1.07550e-05
 Reference value :  1.07580e-05
 Reference value :  1.07726e-05
 Reference value :  1.09727e-05
 Reference value :  1.10000e-05
 Reference value :  1.10001e-05
 Reference value :  1.10002e-05
 Reference value :  1.10009e-05
 Reference value :  1.10016e-05
 Reference value :  1.10030e-05
 Reference value :  1.10041e-05
 Reference value :  1.10056e-05
 Reference value :  1.10062e-05
 Reference value :  1.10080e-05
 Reference value :  1.10111e-05
 Reference value :  1.10191e-05
 Reference value :  1.10688e-05
 Reference value :  1.12501e-05
 Reference value :  1.12502e-05
 Reference value :  1.12502e-05
 Reference value :  1.12503e-05
 Reference value :  1.12511e-05
 Reference value :  1.12520e-05
 Reference value :  1.12532e-05
 Reference value :  1.12538e-05
 Reference value :  1.12549e-05
 Reference value :  1.12562e-05
 Reference value :  1.12589e-05
 Reference value :  1.12647e-05
 Reference value :  1.13016e-05
 Reference value :  1.15000e-05
 Reference value :  1.15001e-05
 Reference value :  1.15002e-05
 Reference value :  1.15009e-05
 Reference value :  1.15016e-05
 Reference value :  1.15031e-05
 Reference value :  1.15047e-05
 Reference value :  1.15057e-05
 Reference value :  1.15081e-05
 Reference value :  1.15101e-05
 Reference value :  1.15120e-05
 Reference value :  1.15137e-05
 Reference value :  1.15152e-05
 Reference value :  1.15180e-05
 Reference value :  1.15225e-05
 Reference value :  1.15540e-05
 Reference value :  1.16398e-05
 Reference value :  1.17501e-05
 Reference value :  1.17502e-05
 Reference value :  1.17502e-05
 Reference value :  1.17504e-05
 Reference value :  1.17516e-05
 Reference value :  1.17532e-05
 Reference value :  1.17543e-05
 Reference value :  1.17564e-05
 Reference value :  1.17656e-05
 Reference value :  1.18616e-05
 Reference value :  1.20000e-05
 Reference value :  1.20001e-05
 Reference value :  1.20002e-05
 Reference value :  1.20005e-05
 Reference value :  1.20012e-05
 Reference value :  1.20020e-05
 Reference value :  1.20030e-05
 Reference value :  1.20041e-05
 Reference value :  1.20062e-05
 Reference value :  1.20079e-05
 Reference value :  1.20111e-05
 Reference value :  1.20262e-05
 Reference value :  1.22406e-05
 Reference value :  1.22501e-05
 Reference value :  1.22502e-05
 Reference value :  1.22503e-05
 Reference value :  1.22511e-05
 Reference value :  1.22520e-05
 Reference value :  1.22532e-05
 Reference value :  1.22544e-05
 Reference value :  1.22562e-05
 Reference value :  1.22589e-05
 Reference value :  1.22621e-05
 Reference value :  1.22845e-05
 Reference value :  1.25000e-05
 Reference value :  1.25001e-05
 Reference value :  1.25002e-05
 Reference value :  1.25009e-05
 Reference value :  1.25021e-05
 Reference value :  1.25036e-05
 Reference value :  1.25047e-05
 Reference value :  1.25057e-05
 Reference value :  1.25081e-05
 Reference value :  1.25101e-05
 Reference value :  1.25120e-05
 Reference value :  1.25137e-05
 Reference value :  1.25152e-05
 Reference value :  1.25180e-05
 Reference value :  1.25254e-05
 Reference value :  1.25482e-05
 Reference value :  1.25691e-05
 Reference value :  1.25881e-05
 Reference value :  1.25945e-05
 Reference value :  1.26052e-05
 Reference value :  1.26538e-05
 Reference value :  1.27083e-05
 Reference value :  1.27306e-05
 Reference value :  1.27501e-05
 Reference value :  1.27502e-05
 Reference value :  1.27503e-05
 Reference value :  1.27511e-05
 Reference value :  1.27520e-05
 Reference value :  1.27532e-05
 Reference value :  1.27537e-05
 Reference value :  1.27557e-05
 Reference value :  1.27598e-05
 Reference value :  1.27867e-05
 Reference value :  1.29785e-05
 Reference value :  1.30001e-05
 Reference value :  1.30001e-05
 Reference value :  1.30003e-05
 Reference value :  1.30009e-05
 Reference value :  1.30016e-05
 Reference value :  1.30030e-05
 Reference value :  1.30041e-05
 Reference value :  1.30056e-05
 Reference value :  1.30062e-05
 Reference value :  1.30079e-05
 Reference value :  1.30111e-05
 Reference value :  1.30262e-05
 Reference value :  1.32405e-05
 Reference value :  1.32501e-05
 Reference value :  1.32502e-05
 Reference value :  1.32507e-05
 Reference value :  1.32520e-05
 Reference value :  1.32538e-05
 Reference value :  1.32549e-05
 Reference value :  1.32562e-05
 Reference value :  1.32589e-05
 Reference value :  1.32647e-05
 Reference value :  1.32845e-05
 Reference value :  1.35000e-05
 Reference value :  1.35001e-05
 Reference value :  1.35002e-05
 Reference value :  1.35005e-05
 Reference value :  1.35012e-05
 Reference value :  1.35021e-05
 Reference value :  1.35031e-05
 Reference value :  1.35047e-05
 Reference value :  1.35057e-05
 Reference value :  1.35081e-05
 Reference value :  1.35101e-05
 Reference value :  1.35120e-05
 Reference value :  1.35137e-05
 Reference value :  1.35153e-05
 Reference value :  1.35171e-05
 Reference value :  1.35181e-05
 Reference value :  1.35209e-05
 Reference value :  1.35256e-05
 Reference value :  1.35359e-05
 Reference value :  1.35404e-05
 Reference value :  1.35436e-05
 Reference value :  1.35497e-05
 Reference value :  1.35860e-05
 Reference value :  1.36664e-05
 Reference value :  1.37501e-05
 Reference value :  1.37502e-05
 Reference value :  1.37503e-05
 Reference value :  1.37507e-05
 Reference value :  1.37516e-05
 Reference value :  1.37520e-05
 Reference value :  1.37532e-05
 Reference value :  1.37538e-05
 Reference value :  1.37550e-05
 Reference value :  1.37564e-05
 Reference value :  1.37625e-05
 Reference value :  1.37855e-05
 Reference value :  1.39690e-05
 Reference value :  1.40000e-05
 Reference value :  1.40001e-05
 Reference value :  1.40002e-05
 Reference value :  1.40005e-05
 Reference value :  1.40009e-05
 Reference value :  1.40016e-05
 Reference value :  1.40026e-05
 Reference value :  1.40031e-05
 Reference value :  1.40042e-05
 Reference value :  1.40057e-05
 Reference value :  1.40063e-05
 Reference value :  1.40079e-05
 Reference value :  1.40098e-05
 Reference value :  1.40144e-05
 Reference value :  1.40717e-05
 Reference value :  1.42501e-05
 Reference value :  1.42502e-05
 Reference value :  1.42503e-05
 Reference value :  1.42516e-05
 Reference value :  1.42525e-05
 Reference value :  1.42538e-05
 Reference value :  1.42549e-05
 Reference value :  1.42563e-05
 Reference value :  1.42612e-05
 Reference value :  1.43031e-05
 Reference value :  1.45000e-05
 Reference value :  1.45001e-05
 Reference value :  1.45002e-05
 Reference value :  1.45009e-05
 Reference value :  1.45021e-05
 Reference value :  1.45031e-05
 Reference value :  1.45047e-05
 Reference value :  1.45058e-05
 Reference value :  1.45087e-05
 Reference value :  1.45119e-05
 Reference value :  1.45145e-05
 Reference value :  1.45166e-05
 Reference value :  1.45199e-05
 Reference value :  1.45375e-05
 Reference value :  1.46588e-05
 Reference value :  1.47501e-05
 Reference value :  1.47502e-05
 Reference value :  1.47504e-05
 Reference value :  1.47516e-05
 Reference value :  1.47532e-05
 Reference value :  1.47544e-05
 Reference value :  1.47557e-05
 Reference value :  1.47597e-05
 Reference value :  1.47856e-05
 Reference value :  1.50000e-05
 Reference value :  1.50001e-05
 Reference value :  1.50002e-05
 Reference value :  1.50009e-05
 Reference value :  1.50021e-05
 Reference value :  1.50031e-05
 Reference value :  1.50049e-05
 Reference value :  1.50063e-05
 Reference value :  1.50079e-05
 Reference value :  1.50098e-05
 Reference value :  1.50189e-05
 Reference value :  1.52420e-05
 Reference value :  1.52502e-05
 Reference value :  1.52504e-05
 Reference value :  1.52520e-05
 Reference value :  1.52538e-05
 Reference value :  1.52555e-05
 Reference value :  1.52572e-05
 Reference value :  1.52645e-05
 Reference value :  1.53475e-05
 Reference value :  1.55011e-05
 Reference value :  1.55046e-05
 Reference value :  1.55067e-05
 Reference value :  1.55090e-05
 Reference value :  1.55117e-05
 Reference value :  1.55141e-05
 Reference value :  1.55175e-05
 Reference value :  1.55214e-05
 Reference value :  1.55368e-05
 Reference value :  1.55537e-05
 Reference value :  1.55766e-05
 Reference value :  1.56481e-05
 Reference value :  1.57501e-05
 Reference value :  1.57502e-05
 Reference value :  1.57504e-05
 Reference value :  1.57516e-05
 Reference value :  1.57525e-05
 Reference value :  1.57536e-05
 Reference value :  1.57548e-05
 Reference value :  1.57573e-05
 Reference value :  1.57702e-05
 Reference value :  1.59291e-05
 Reference value :  1.60000e-05
 Reference value :  1.60001e-05
 Reference value :  1.60003e-05
 Reference value :  1.60009e-05
 Reference value :  1.60020e-05
 Reference value :  1.60030e-05
 Reference value :  1.60049e-05
 Reference value :  1.60062e-05
 Reference value :  1.60079e-05
 Reference value :  1.60099e-05
 Reference value :  1.60145e-05
 Reference value :  1.60690e-05
 Reference value :  1.62501e-05
 Reference value :  1.62502e-05
 Reference value :  1.62503e-05
 Reference value :  1.62511e-05
 Reference value :  1.62520e-05
 Reference value :  1.62538e-05
 Reference value :  1.62549e-05
 Reference value :  1.62562e-05
 Reference value :  1.62589e-05
 Reference value :  1.62679e-05
 Reference value :  1.64009e-05
 Reference value :  1.65001e-05
 Reference value :  1.65002e-05
 Reference value :  1.65009e-05
 Reference value :  1.65016e-05
 Reference value :  1.65031e-05
 Reference value :  1.65041e-05
 Reference value :  1.65052e-05
 Reference value :  1.65070e-05
 Reference value :  1.65086e-05
 Reference value :  1.65101e-05
 Reference value :  1.65137e-05
 Reference value :  1.65197e-05
 Reference value :  1.65465e-05
 Reference value :  1.65582e-05
 Reference value :  1.65956e-05
 Reference value :  1.66421e-05
 Reference value :  1.67501e-05
 Reference value :  1.67502e-05
 Reference value :  1.67503e-05
 Reference value :  1.67511e-05
 Reference value :  1.67520e-05
 Reference value :  1.67532e-05
 Reference value :  1.67558e-05
 Reference value :  1.67601e-05
 Reference value :  1.68191e-05
 Reference value :  1.70000e-05
 Reference value :  1.70000e-05
 Reference value :  1.70000e-05
 Reference value :  1.70001e-05
 Reference value :  1.70004e-05
 Reference value :  1.70016e-05
 Reference value :  1.70031e-05
 Reference value :  1.70042e-05
 Reference value :  1.70058e-05
 Reference value :  1.70169e-05
 Reference value :  1.70229e-05
 Reference value :  1.70290e-05
 Reference value :  1.70332e-05
 Reference value :  1.70396e-05
 Reference value :  1.70485e-05
 Reference value :  1.70678e-05
 Reference value :  1.71192e-05
 Reference value :  1.72161e-05
 Reference value :  1.72502e-05
 Reference value :  1.72503e-05
 Reference value :  1.72507e-05
 Reference value :  1.72520e-05
 Reference value :  1.72532e-05
 Reference value :  1.72543e-05
 Reference value :  1.72564e-05
 Reference value :  1.72656e-05
 Reference value :  1.73017e-05
 Reference value :  1.73207e-05
 Reference value :  1.73345e-05
 Reference value :  1.73557e-05
 Reference value :  1.73742e-05
 Reference value :  1.74316e-05
 Reference value :  1.75000e-05
 Reference value :  1.75001e-05
 Reference value :  1.75002e-05
 Reference value :  1.75009e-05
 Reference value :  1.75020e-05
 Reference value :  1.75035e-05
 Reference value :  1.75056e-05
 Reference value :  1.75099e-05
 Reference value :  1.75126e-05
 Reference value :  1.75159e-05
 Reference value :  1.75256e-05
 Reference value :  1.77501e-05
 Reference value :  1.77501e-05
 Reference value :  1.77502e-05
 Reference value :  1.77504e-05
 Reference value :  1.77516e-05
 Reference value :  1.77525e-05
 Reference value :  1.77537e-05
 Reference value :  1.77549e-05
 Reference value :  1.77562e-05
 Reference value :  1.77576e-05
 Reference value :  1.77594e-05
 Reference value :  1.77694e-05
 Reference value :  1.78145e-05
 Reference value :  1.80000e-05
 Reference value :  1.80009e-05
 Reference value :  1.80036e-05
 Reference value :  1.80054e-05
 Reference value :  1.80070e-05
 Reference value :  1.80098e-05
 Reference value :  1.80116e-05
 Reference value :  1.80136e-05
 Reference value :  1.80154e-05
 Reference value :  1.80184e-05
 Reference value :  1.80231e-05
 Reference value :  1.80503e-05
 Reference value :  1.82501e-05
 Reference value :  1.82501e-05
 Reference value :  1.82502e-05
 Reference value :  1.82504e-05
 Reference value :  1.82514e-05
 Reference value :  1.82523e-05
 Reference value :  1.82541e-05
 Reference value :  1.82562e-05
 Reference value :  1.82609e-05
 Reference value :  1.82930e-05
 Reference value :  1.83607e-05
 Reference value :  1.84513e-05
 Reference value :  1.84828e-05
 Reference value :  1.85000e-05
 Reference value :  1.85001e-05
 Reference value :  1.85002e-05
 Reference value :  1.85009e-05
 Reference value :  1.85016e-05
 Reference value :  1.85031e-05
 Reference value :  1.85049e-05
 Reference value :  1.85063e-05
 Reference value :  1.85080e-05
 Reference value :  1.85099e-05
 Reference value :  1.85121e-05
 Reference value :  1.85265e-05
 Reference value :  1.86153e-05
 Reference value :  1.87501e-05
 Reference value :  1.87502e-05
 Reference value :  1.87504e-05
 Reference value :  1.87516e-05
 Reference value :  1.87525e-05
 Reference value :  1.87538e-05
 Reference value :  1.87549e-05
 Reference value :  1.87563e-05
 Reference value :  1.87612e-05
 Reference value :  1.88027e-05
 Reference value :  1.90000e-05
 Reference value :  1.90001e-05
 Reference value :  1.90002e-05
 Reference value :  1.90003e-05
 Reference value :  1.90009e-05
 Reference value :  1.90016e-05
 Reference value :  1.90026e-05
 Reference value :  1.90036e-05
 Reference value :  1.90052e-05
 Reference value :  1.90073e-05
 Reference value :  1.90103e-05
 Reference value :  1.90134e-05
 Reference value :  1.90156e-05
 Reference value :  1.90176e-05
 Reference value :  1.90199e-05
 Reference value :  1.90295e-05
 Reference value :  1.90349e-05
 Reference value :  1.90432e-05
 Reference value :  1.90465e-05
 Reference value :  1.90567e-05
 Reference value :  1.90731e-05
 Reference value :  1.90940e-05
 Reference value :  1.92196e-05
 Reference value :  1.92501e-05
 Reference value :  1.92502e-05
 Reference value :  1.92503e-05
 Reference value :  1.92511e-05
 Reference value :  1.92520e-05
 Reference value :  1.92532e-05
 Reference value :  1.92543e-05
 Reference value :  1.92565e-05
 Reference value :  1.92659e-05
 Reference value :  1.94728e-05
 Reference value :  1.95005e-05
 Reference value :  1.95019e-05
 Reference value :  1.95035e-05
 Reference value :  1.95056e-05
 Reference value :  1.95070e-05
 Reference value :  1.95079e-05
 Reference value :  1.95098e-05
 Reference value :  1.95121e-05
 Reference value :  1.95415e-05
 Reference value :  1.97501e-05
 Reference value :  1.97502e-05
 Reference value :  1.97504e-05
 Reference value :  1.97516e-05
 Reference value :  1.97532e-05
 Reference value :  1.97549e-05
 Reference value :  1.97562e-05
 Reference value :  1.97589e-05
 Reference value :  1.97679e-05
 Reference value :  1.98374e-05
 Reference value :  2.00000e-05
 Reference value :  2.00001e-05
 Reference value :  2.00005e-05
 Reference value :  2.00016e-05
 Reference value :  2.00031e-05
 Reference value :  2.00047e-05
 Reference value :  2.00057e-05
 Reference value :  2.00071e-05
 Reference value :  2.00092e-05
 Reference value :  2.00110e-05
 Reference value :  2.00137e-05
 Reference value :  2.00152e-05
 Reference value :  2.00180e-05
 Reference value :  2.00225e-05
 Reference value :  2.00539e-05
 Reference value :  2.01386e-05
 Reference value :  2.02485e-05
 Reference value :  2.02501e-05
 Reference value :  2.02502e-05
 Reference value :  2.02504e-05
 Reference value :  2.02516e-05
 Reference value :  2.02525e-05
 Reference value :  2.02538e-05
 Reference value :  2.02550e-05
 Reference value :  2.02580e-05
 Reference value :  2.02720e-05
 Reference value :  2.04645e-05
 Reference value :  2.05006e-05
 Reference value :  2.05024e-05
 Reference value :  2.05036e-05
 Reference value :  2.05057e-05
 Reference value :  2.05070e-05
 Reference value :  2.05088e-05
 Reference value :  2.05123e-05
 Reference value :  2.05213e-05
 Reference value :  2.05636e-05
 Reference value :  2.07501e-05
 Reference value :  2.07502e-05
 Reference value :  2.07502e-05
 Reference value :  2.07504e-05
 Reference value :  2.07516e-05
 Reference value :  2.07525e-05
 Reference value :  2.07537e-05
 Reference value :  2.07549e-05
 Reference value :  2.07562e-05
 Reference value :  2.07578e-05
 Reference value :  2.07620e-05
 Reference value :  2.07741e-05
 Reference value :  2.08934e-05
 Reference value :  2.10000e-05
 Reference value :  2.10001e-05
 Reference value :  2.10002e-05
 Reference value :  2.10009e-05
 Reference value :  2.10016e-05
 Reference value :  2.10031e-05
 Reference value :  2.10042e-05
 Reference value :  2.10052e-05
 Reference value :  2.10064e-05
 Reference value :  2.10081e-05
 Reference value :  2.10101e-05
 Reference value :  2.10120e-05
 Reference value :  2.10137e-05
 Reference value :  2.10152e-05
 Reference value :  2.10171e-05
 Reference value :  2.10190e-05
 Reference value :  2.10255e-05
 Reference value :  2.10507e-05
 Reference value :  2.10714e-05
 Reference value :  2.10900e-05
 Reference value :  2.10993e-05
 Reference value :  2.11339e-05
 Reference value :  2.12116e-05
 Reference value :  2.12420e-05
 Reference value :  2.12501e-05
 Reference value :  2.12502e-05
 Reference value :  2.12504e-05
 Reference value :  2.12516e-05
 Reference value :  2.12532e-05
 Reference value :  2.12543e-05
 Reference value :  2.12564e-05
 Reference value :  2.12624e-05
 Reference value :  2.12907e-05
 Reference value :  2.14719e-05
 Reference value :  2.15001e-05
 Reference value :  2.15002e-05
 Reference value :  2.15005e-05
 Reference value :  2.15012e-05
 Reference value :  2.15020e-05
 Reference value :  2.15030e-05
 Reference value :  2.15049e-05
 Reference value :  2.15062e-05
 Reference value :  2.15088e-05
 Reference value :  2.15122e-05
 Reference value :  2.15258e-05
 Reference value :  2.17414e-05
 Reference value :  2.17501e-05
 Reference value :  2.17502e-05
 Reference value :  2.17503e-05
 Reference value :  2.17507e-05
 Reference value :  2.17516e-05
 Reference value :  2.17525e-05
 Reference value :  2.17538e-05
 Reference value :  2.17549e-05
 Reference value :  2.17562e-05
 Reference value :  2.17578e-05
 Reference value :  2.17604e-05
 Reference value :  2.17679e-05
 Reference value :  2.18359e-05
 Reference value :  2.20015e-05
 Reference value :  2.20046e-05
 Reference value :  2.20062e-05
 Reference value :  2.20090e-05
 Reference value :  2.20113e-05
 Reference value :  2.20123e-05
 Reference value :  2.20143e-05
 Reference value :  2.20162e-05
 Reference value :  2.20192e-05
 Reference value :  2.20243e-05
 Reference value :  2.20378e-05
 Reference value :  2.20437e-05
 Reference value :  2.20622e-05
 Reference value :  2.21000e-05
 Reference value :  2.21812e-05
 Reference value :  2.22501e-05
 Reference value :  2.22502e-05
 Reference value :  2.22503e-05
 Reference value :  2.22511e-05
 Reference value :  2.22520e-05
 Reference value :  2.22537e-05
 Reference value :  2.22549e-05
 Reference value :  2.22577e-05
 Reference value :  2.22713e-05
 Reference value :  2.24596e-05
 Reference value :  2.25000e-05
 Reference value :  2.25001e-05
 Reference value :  2.25002e-05
 Reference value :  2.25009e-05
 Reference value :  2.25016e-05
 Reference value :  2.25031e-05
 Reference value :  2.25042e-05
 Reference value :  2.25057e-05
 Reference value :  2.25063e-05
 Reference value :  2.25079e-05
 Reference value :  2.25098e-05
 Reference value :  2.25121e-05
 Reference value :  2.25265e-05
 Reference value :  2.26318e-05
 Reference value :  2.27501e-05
 Reference value :  2.27502e-05
 Reference value :  2.27503e-05
 Reference value :  2.27507e-05
 Reference value :  2.27520e-05
 Reference value :  2.27532e-05
 Reference value :  2.27544e-05
 Reference value :  2.27563e-05
 Reference value :  2.27645e-05
 Reference value :  2.28469e-05
 Reference value :  2.30012e-05
 Reference value :  2.30047e-05
 Reference value :  2.30068e-05
 Reference value :  2.30103e-05
 Reference value :  2.30131e-05
 Reference value :  2.30152e-05
 Reference value :  2.30173e-05
 Reference value :  2.30209e-05
 Reference value :  2.30302e-05
 Reference value :  2.30583e-05
 Reference value :  2.31654e-05
 Reference value :  2.32501e-05
 Reference value :  2.32502e-05
 Reference value :  2.32502e-05
 Reference value :  2.32504e-05
 Reference value :  2.32516e-05
 Reference value :  2.32525e-05
 Reference value :  2.32537e-05
 Reference value :  2.32549e-05
 Reference value :  2.32575e-05
 Reference value :  2.32648e-05
 Reference value :  2.33051e-05
 Reference value :  2.35000e-05
 Reference value :  2.35001e-05
 Reference value :  2.35002e-05
 Reference value :  2.35005e-05
 Reference value :  2.35012e-05
 Reference value :  2.35026e-05
 Reference value :  2.35042e-05
 Reference value :  2.35057e-05
 Reference value :  2.35063e-05
 Reference value :  2.35080e-05
 Reference value :  2.35098e-05
 Reference value :  2.35121e-05
 Reference value :  2.35416e-05
 Reference value :  2.37501e-05
 Reference value :  2.37502e-05
 Reference value :  2.37502e-05
 Reference value :  2.37504e-05
 Reference value :  2.37511e-05
 Reference value :  2.37520e-05
 Reference value :  2.37538e-05
 Reference value :  2.37549e-05
 Reference value :  2.37563e-05
 Reference value :  2.37590e-05
 Reference value :  2.37699e-05
 Reference value :  2.38465e-05
 Reference value :  2.40000e-05
 Reference value :  2.40001e-05
 Reference value :  2.40002e-05
 Reference value :  2.40003e-05
 Reference value :  2.40009e-05
 Reference value :  2.40016e-05
 Reference value :  2.40031e-05
 Reference value :  2.40047e-05
 Reference value :  2.40058e-05
 Reference value :  2.40073e-05
 Reference value :  2.40103e-05
 Reference value :  2.40134e-05
 Reference value :  2.40156e-05
 Reference value :  2.40176e-05
 Reference value :  2.40219e-05
 Reference value :  2.40489e-05
 Reference value :  2.40850e-05
 Reference value :  2.41212e-05
 Reference value :  2.41830e-05
 Reference value :  2.42501e-05
 Reference value :  2.42502e-05
 Reference value :  2.42503e-05
 Reference value :  2.42511e-05
 Reference value :  2.42520e-05
 Reference value :  2.42532e-05
 Reference value :  2.42543e-05
 Reference value :  2.42565e-05
 Reference value :  2.42597e-05
 Reference value :  2.43655e-05
 Reference value :  2.45000e-05
 Reference value :  2.45001e-05
 Reference value :  2.45002e-05
 Reference value :  2.45005e-05
 Reference value :  2.45012e-05
 Reference value :  2.45020e-05
 Reference value :  2.45030e-05
 Reference value :  2.45041e-05
 Reference value :  2.45056e-05
 Reference value :  2.45062e-05
 Reference value :  2.45080e-05
 Reference value :  2.45111e-05
 Reference value :  2.45262e-05
 Reference value :  2.47393e-05
 Reference value :  2.47501e-05
 Reference value :  2.47502e-05
 Reference value :  2.47503e-05
 Reference value :  2.47507e-05
 Reference value :  2.47516e-05
 Reference value :  2.47525e-05
 Reference value :  2.47538e-05
 Reference value :  2.47549e-05
 Reference value :  2.47562e-05
 Reference value :  2.47578e-05
 Reference value :  2.47620e-05
 Reference value :  2.47742e-05
 Reference value :  2.49016e-05
 Reference value :  2.50000e-05
 Reference value :  2.50001e-05
 Reference value :  2.50005e-05
 Reference value :  2.50012e-05
 Reference value :  2.50021e-05
 Reference value :  2.50031e-05
 Reference value :  2.50041e-05
 Reference value :  2.50052e-05
 Reference value :  2.50063e-05
 Reference value :  2.50077e-05
 Reference value :  2.50101e-05
 Reference value :  2.50137e-05
 Reference value :  2.50226e-05
 Reference value :  2.50374e-05
 Reference value :  2.50500e-05
 Reference value :  2.50828e-05
 Reference value :  2.52501e-05
 Reference value :  2.52502e-05
 Reference value :  2.52504e-05
 Reference value :  2.52520e-05
 Reference value :  2.52539e-05
 Reference value :  2.52584e-05
 Reference value :  2.52892e-05
 Reference value :  2.55000e-05
 Reference value :  2.55000e-05
 Reference value :  2.55000e-05
 Reference value :  2.55001e-05
 Reference value :  2.55004e-05
 Reference value :  2.55016e-05
 Reference value :  2.55025e-05
 Reference value :  2.55036e-05
 Reference value :  2.55046e-05
 Reference value :  2.55058e-05
 Reference value :  2.55095e-05
 Reference value :  2.55229e-05
 Reference value :  2.55290e-05
 Reference value :  2.55368e-05
 Reference value :  2.55424e-05
 Reference value :  2.55525e-05
 Reference value :  2.55658e-05
 Reference value :  2.56003e-05
 Reference value :  2.56943e-05
 Reference value :  2.57501e-05
 Reference value :  2.57502e-05
 Reference value :  2.57503e-05
 Reference value :  2.57511e-05
 Reference value :  2.57520e-05
 Reference value :  2.57532e-05
 Reference value :  2.57544e-05
 Reference value :  2.57556e-05
 Reference value :  2.57580e-05
 Reference value :  2.57722e-05
 Reference value :  2.58029e-05
 Reference value :  2.58220e-05
 Reference value :  2.58359e-05
 Reference value :  2.58467e-05
 Reference value :  2.58676e-05
 Reference value :  2.58755e-05
 Reference value :  2.59076e-05
 Reference value :  2.59807e-05
 Reference value :  2.60000e-05
 Reference value :  2.60001e-05
 Reference value :  2.60001e-05
 Reference value :  2.60002e-05
 Reference value :  2.60005e-05
 Reference value :  2.60009e-05
 Reference value :  2.60012e-05
 Reference value :  2.60016e-05
 Reference value :  2.60020e-05
 Reference value :  2.60030e-05
 Reference value :  2.60041e-05
 Reference value :  2.60056e-05
 Reference value :  2.60086e-05
 Reference value :  2.60099e-05
 Reference value :  2.60113e-05
 Reference value :  2.60126e-05
 Reference value :  2.60159e-05
 Reference value :  2.60213e-05
 Reference value :  2.60339e-05
 Reference value :  2.61413e-05
 Reference value :  2.62501e-05
 Reference value :  2.62502e-05
 Reference value :  2.62502e-05
 Reference value :  2.62503e-05
 Reference value :  2.62504e-05
 Reference value :  2.62511e-05
 Reference value :  2.62520e-05
 Reference value :  2.62532e-05
 Reference value :  2.62537e-05
 Reference value :  2.62549e-05
 Reference value :  2.62562e-05
 Reference value :  2.62576e-05
 Reference value :  2.62594e-05
 Reference value :  2.62655e-05
 Reference value :  2.62959e-05
 Reference value :  2.64459e-05
 Reference value :  2.65009e-05
 Reference value :  2.65036e-05
 Reference value :  2.65054e-05
 Reference value :  2.65070e-05
 Reference value :  2.65098e-05
 Reference value :  2.65117e-05
 Reference value :  2.65137e-05
 Reference value :  2.65165e-05
 Reference value :  2.65196e-05
 Reference value :  2.65262e-05
 Reference value :  2.65714e-05
 Reference value :  2.67501e-05
 Reference value :  2.67502e-05
 Reference value :  2.67502e-05
 Reference value :  2.67504e-05
 Reference value :  2.67516e-05
 Reference value :  2.67525e-05
 Reference value :  2.67537e-05
 Reference value :  2.67549e-05
 Reference value :  2.67575e-05
 Reference value :  2.67646e-05
 Reference value :  2.68072e-05
 Reference value :  2.69519e-05
 Reference value :  2.69850e-05
 Reference value :  2.70000e-05
 Reference value :  2.70001e-05
 Reference value :  2.70002e-05
 Reference value :  2.70009e-05
 Reference value :  2.70021e-05
 Reference value :  2.70031e-05
 Reference value :  2.70042e-05
 Reference value :  2.70057e-05
 Reference value :  2.70063e-05
 Reference value :  2.70080e-05
 Reference value :  2.70099e-05
 Reference value :  2.70109e-05
 Reference value :  2.70190e-05
 Reference value :  2.70858e-05
 Reference value :  2.72501e-05
 Reference value :  2.72502e-05
 Reference value :  2.72503e-05
 Reference value :  2.72511e-05
 Reference value :  2.72520e-05
 Reference value :  2.72532e-05
 Reference value :  2.72544e-05
 Reference value :  2.72555e-05
 Reference value :  2.72590e-05
 Reference value :  2.72809e-05
 Reference value :  2.75000e-05
 Reference value :  2.75001e-05
 Reference value :  2.75002e-05
 Reference value :  2.75009e-05
 Reference value :  2.75016e-05
 Reference value :  2.75026e-05
 Reference value :  2.75031e-05
 Reference value :  2.75042e-05
 Reference value :  2.75052e-05
 Reference value :  2.75073e-05
 Reference value :  2.75103e-05
 Reference value :  2.75134e-05
 Reference value :  2.75156e-05
 Reference value :  2.75176e-05
 Reference value :  2.75199e-05
 Reference value :  2.75295e-05
 Reference value :  2.75351e-05
 Reference value :  2.75435e-05
 Reference value :  2.75509e-05
 Reference value :  2.75573e-05
 Reference value :  2.75737e-05
 Reference value :  2.76619e-05
 Reference value :  2.77502e-05
 Reference value :  2.77503e-05
 Reference value :  2.77511e-05
 Reference value :  2.77520e-05
 Reference value :  2.77532e-05
 Reference value :  2.77537e-05
 Reference value :  2.77550e-05
 Reference value :  2.77565e-05
 Reference value :  2.77580e-05
 Reference value :  2.77626e-05
 Reference value :  2.77859e-05
 Reference value :  2.78659e-05
 Reference value :  2.80000e-05
 Reference value :  2.80005e-05
 Reference value :  2.80019e-05
 Reference value :  2.80030e-05
 Reference value :  2.80041e-05
 Reference value :  2.80057e-05
 Reference value :  2.80063e-05
 Reference value :  2.80080e-05
 Reference value :  2.80090e-05
 Reference value :  2.80109e-05
 Reference value :  2.80267e-05
 Reference value :  2.82501e-05
 Reference value :  2.82502e-05
 Reference value :  2.82503e-05
 Reference value :  2.82511e-05
 Reference value :  2.82520e-05
 Reference value :  2.82532e-05
 Reference value :  2.82538e-05
 Reference value :  2.82549e-05
 Reference value :  2.82562e-05
 Reference value :  2.82579e-05
 Reference value :  2.82604e-05
 Reference value :  2.82680e-05
 Reference value :  2.83377e-05
 Reference value :  2.85000e-05
 Reference value :  2.85001e-05
 Reference value :  2.85002e-05
 Reference value :  2.85009e-05
 Reference value :  2.85016e-05
 Reference value :  2.85031e-05
 Reference value :  2.85047e-05
 Reference value :  2.85057e-05
 Reference value :  2.85081e-05
 Reference value :  2.85101e-05
 Reference value :  2.85120e-05
 Reference value :  2.85137e-05
 Reference value :  2.85152e-05
 Reference value :  2.85170e-05
 Reference value :  2.85180e-05
 Reference value :  2.85225e-05
 Reference value :  2.85392e-05
 Reference value :  2.85754e-05
 Reference value :  2.86375e-05
 Reference value :  2.87459e-05
 Reference value :  2.87501e-05
 Reference value :  2.87502e-05
 Reference value :  2.87503e-05
 Reference value :  2.87507e-05
 Reference value :  2.87516e-05
 Reference value :  2.87525e-05
 Reference value :  2.87538e-05
 Reference value :  2.87556e-05
 Reference value :  2.87656e-05
 Reference value :  2.90000e-05
 Reference value :  2.90006e-05
 Reference value :  2.90024e-05
 Reference value :  2.90036e-05
 Reference value :  2.90063e-05
 Reference value :  2.90088e-05
 Reference value :  2.90169e-05
 Reference value :  2.91025e-05
 Reference value :  2.92502e-05
 Reference value :  2.92503e-05
 Reference value :  2.92511e-05
 Reference value :  2.92520e-05
 Reference value :  2.92537e-05
 Reference value :  2.92549e-05
 Reference value :  2.92562e-05
 Reference value :  2.92589e-05
 Reference value :  2.92646e-05
 Reference value :  2.92833e-05
 Reference value :  2.93934e-05
 Reference value :  2.95000e-05
 Reference value :  2.95001e-05
 Reference value :  2.95002e-05
 Reference value :  2.95005e-05
 Reference value :  2.95009e-05
 Reference value :  2.95016e-05
 Reference value :  2.95026e-05
 Reference value :  2.95031e-05
 Reference value :  2.95042e-05
 Reference value :  2.95052e-05
 Reference value :  2.95064e-05
 Reference value :  2.95081e-05
 Reference value :  2.95101e-05
 Reference value :  2.95120e-05
 Reference value :  2.95137e-05
 Reference value :  2.95152e-05
 Reference value :  2.95190e-05
 Reference value :  2.95479e-05
 Reference value :  2.95767e-05
 Reference value :  2.95895e-05
 Reference value :  2.96121e-05
 Reference value :  2.97310e-05
 Reference value :  2.97502e-05
 Reference value :  2.97503e-05
 Reference value :  2.97511e-05
 Reference value :  2.97520e-05
 Reference value :  2.97537e-05
 Reference value :  2.97556e-05
 Reference value :  2.97624e-05
 Reference value :  2.98034e-05
 Reference value :  2.98549e-05
 Reference value :  2.99752e-05
 Reference value :  3.00000e-05
 Reference value :  3.00001e-05
 Reference value :  3.00002e-05
 Reference value :  3.00009e-05
 Reference value :  3.00020e-05
 Reference value :  3.00036e-05
 Reference value :  3.00062e-05
 Reference value :  3.00089e-05
 Reference value :  3.00145e-05
 Reference value :  3.01259e-05
 Reference value :  3.02501e-05
 Reference value :  3.02502e-05
 Reference value :  3.02503e-05
 Reference value :  3.02507e-05
 Reference value :  3.02516e-05
 Reference value :  3.02525e-05
 Reference value :  3.02538e-05
 Reference value :  3.02549e-05
 Reference value :  3.02562e-05
 Reference value :  3.02579e-05
 Reference value :  3.02604e-05
 Reference value :  3.02679e-05
 Reference value :  3.03017e-05
 Reference value :  3.04052e-05
 Reference value :  3.05015e-05
 Reference value :  3.05046e-05
 Reference value :  3.05061e-05
 Reference value :  3.05077e-05
 Reference value :  3.05090e-05
 Reference value :  3.05101e-05
 Reference value :  3.05113e-05
 Reference value :  3.05123e-05
 Reference value :  3.05134e-05
 Reference value :  3.05143e-05
 Reference value :  3.05162e-05
 Reference value :  3.05182e-05
 Reference value :  3.05192e-05
 Reference value :  3.05222e-05
 Reference value :  3.05289e-05
 Reference value :  3.05333e-05
 Reference value :  3.05365e-05
 Reference value :  3.05396e-05
 Reference value :  3.05422e-05
 Reference value :  3.05503e-05
 Reference value :  3.05652e-05
 Reference value :  3.05974e-05
 Reference value :  3.06139e-05
 Reference value :  3.06745e-05
 Reference value :  3.07501e-05
 Reference value :  3.07501e-05
 Reference value :  3.07502e-05
 Reference value :  3.07502e-05
 Reference value :  3.07503e-05
 Reference value :  3.07507e-05
 Reference value :  3.07516e-05
 Reference value :  3.07520e-05
 Reference value :  3.07532e-05
 Reference value :  3.07537e-05
 Reference value :  3.07549e-05
 Reference value :  3.07564e-05
 Reference value :  3.07592e-05
 Reference value :  3.07650e-05
 Reference value :  3.07838e-05
 Reference value :  3.08592e-05
 Reference value :  3.10000e-05
 Reference value :  3.10000e-05
 Reference value :  3.10001e-05
 Reference value :  3.10001e-05
 Reference value :  3.10002e-05
 Reference value :  3.10005e-05
 Reference value :  3.10009e-05
 Reference value :  3.10016e-05
 Reference value :  3.10031e-05
 Reference value :  3.10049e-05
 Reference value :  3.10063e-05
 Reference value :  3.10079e-05
 Reference value :  3.10098e-05
 Reference value :  3.10144e-05
 Reference value :  3.10716e-05
 Reference value :  3.12501e-05
 Reference value :  3.12502e-05
 Reference value :  3.12503e-05
 Reference value :  3.12507e-05
 Reference value :  3.12516e-05
 Reference value :  3.12520e-05
 Reference value :  3.12532e-05
 Reference value :  3.12538e-05
 Reference value :  3.12549e-05
 Reference value :  3.12563e-05
 Reference value :  3.12590e-05
 Reference value :  3.12699e-05
 Reference value :  3.13468e-05
 Reference value :  3.15000e-05
 Reference value :  3.15001e-05
 Reference value :  3.15002e-05
 Reference value :  3.15005e-05
 Reference value :  3.15012e-05
 Reference value :  3.15021e-05
 Reference value :  3.15031e-05
 Reference value :  3.15047e-05
 Reference value :  3.15058e-05
 Reference value :  3.15087e-05
 Reference value :  3.15103e-05
 Reference value :  3.15134e-05
 Reference value :  3.15145e-05
 Reference value :  3.15166e-05
 Reference value :  3.15187e-05
 Reference value :  3.15243e-05
 Reference value :  3.15453e-05
 Reference value :  3.16729e-05
 Reference value :  3.17501e-05
 Reference value :  3.17502e-05
 Reference value :  3.17504e-05
 Reference value :  3.17516e-05
 Reference value :  3.17525e-05
 Reference value :  3.17538e-05
 Reference value :  3.17550e-05
 Reference value :  3.17565e-05
 Reference value :  3.17625e-05
 Reference value :  3.17724e-05
 Reference value :  3.18646e-05
 Reference value :  3.20000e-05
 Reference value :  3.20001e-05
 Reference value :  3.20002e-05
 Reference value :  3.20005e-05
 Reference value :  3.20012e-05
 Reference value :  3.20021e-05
 Reference value :  3.20031e-05
 Reference value :  3.20042e-05
 Reference value :  3.20057e-05
 Reference value :  3.20063e-05
 Reference value :  3.20079e-05
 Reference value :  3.20098e-05
 Reference value :  3.20144e-05
 Reference value :  3.20405e-05
 Reference value :  3.21268e-05
 Reference value :  3.22501e-05
 Reference value :  3.22501e-05
 Reference value :  3.22502e-05
 Reference value :  3.22502e-05
 Reference value :  3.22503e-05
 Reference value :  3.22507e-05
 Reference value :  3.22516e-05
 Reference value :  3.22525e-05
 Reference value :  3.22538e-05
 Reference value :  3.22549e-05
 Reference value :  3.22572e-05
 Reference value :  3.22700e-05
 Reference value :  3.24360e-05
 Reference value :  3.25001e-05
 Reference value :  3.25002e-05
 Reference value :  3.25009e-05
 Reference value :  3.25021e-05
 Reference value :  3.25031e-05
 Reference value :  3.25047e-05
 Reference value :  3.25058e-05
 Reference value :  3.25103e-05
 Reference value :  3.25134e-05
 Reference value :  3.25146e-05
 Reference value :  3.25165e-05
 Reference value :  3.25187e-05
 Reference value :  3.25244e-05
 Reference value :  3.25489e-05
 Reference value :  3.26492e-05
 Reference value :  3.27501e-05
 Reference value :  3.27502e-05
 Reference value :  3.27504e-05
 Reference value :  3.27516e-05
 Reference value :  3.27525e-05
 Reference value :  3.27538e-05
 Reference value :  3.27550e-05
 Reference value :  3.27580e-05
 Reference value :  3.27657e-05
 Reference value :  3.28115e-05
 Reference value :  3.29166e-05
 Reference value :  3.29646e-05
 Reference value :  3.30000e-05
 Reference value :  3.30001e-05
 Reference value :  3.30002e-05
 Reference value :  3.30005e-05
 Reference value :  3.30009e-05
 Reference value :  3.30012e-05
 Reference value :  3.30016e-05
 Reference value :  3.30025e-05
 Reference value :  3.30030e-05
 Reference value :  3.30041e-05
 Reference value :  3.30056e-05
 Reference value :  3.30062e-05
 Reference value :  3.30079e-05
 Reference value :  3.30098e-05
 Reference value :  3.30122e-05
 Reference value :  3.30262e-05
 Reference value :  3.31290e-05
 Reference value :  3.32501e-05
 Reference value :  3.32502e-05
 Reference value :  3.32503e-05
 Reference value :  3.32504e-05
 Reference value :  3.32516e-05
 Reference value :  3.32525e-05
 Reference value :  3.32538e-05
 Reference value :  3.32549e-05
 Reference value :  3.32562e-05
 Reference value :  3.32578e-05
 Reference value :  3.32620e-05
 Reference value :  3.32742e-05
 Reference value :  3.33349e-05
 Reference value :  3.35015e-05
 Reference value :  3.35046e-05
 Reference value :  3.35062e-05
 Reference value :  3.35077e-05
 Reference value :  3.35090e-05
 Reference value :  3.35101e-05
 Reference value :  3.35125e-05
 Reference value :  3.35176e-05
 Reference value :  3.35213e-05
 Reference value :  3.35271e-05
 Reference value :  3.35740e-05
 Reference value :  3.37501e-05
 Reference value :  3.37502e-05
 Reference value :  3.37507e-05
 Reference value :  3.37516e-05
 Reference value :  3.37525e-05
 Reference value :  3.37539e-05
 Reference value :  3.37566e-05
 Reference value :  3.37599e-05
 Reference value :  3.37865e-05
 Reference value :  3.40000e-05
 Reference value :  3.40000e-05
 Reference value :  3.40000e-05
 Reference value :  3.40000e-05
 Reference value :  3.40001e-05
 Reference value :  3.40001e-05
 Reference value :  3.40002e-05
 Reference value :  3.40007e-05
 Reference value :  3.40016e-05
 Reference value :  3.40025e-05
 Reference value :  3.40031e-05
 Reference value :  3.40036e-05
 Reference value :  3.40046e-05
 Reference value :  3.40058e-05
 Reference value :  3.40095e-05
 Reference value :  3.40228e-05
 Reference value :  3.40290e-05
 Reference value :  3.40368e-05
 Reference value :  3.40424e-05
 Reference value :  3.40568e-05
 Reference value :  3.41081e-05
 Reference value :  3.42095e-05
 Reference value :  3.42501e-05
 Reference value :  3.42502e-05
 Reference value :  3.42511e-05
 Reference value :  3.42525e-05
 Reference value :  3.42538e-05
 Reference value :  3.42550e-05
 Reference value :  3.42596e-05
 Reference value :  3.43108e-05
 Reference value :  3.43314e-05
 Reference value :  3.43501e-05
 Reference value :  3.43828e-05
 Reference value :  3.45000e-05
 Reference value :  3.45001e-05
 Reference value :  3.45002e-05
 Reference value :  3.45012e-05
 Reference value :  3.45025e-05
 Reference value :  3.45035e-05
 Reference value :  3.45070e-05
 Reference value :  3.45099e-05
 Reference value :  3.45126e-05
 Reference value :  3.45159e-05
 Reference value :  3.45338e-05
 Reference value :  3.47501e-05
 Reference value :  3.47502e-05
 Reference value :  3.47507e-05
 Reference value :  3.47520e-05
 Reference value :  3.47538e-05
 Reference value :  3.47549e-05
 Reference value :  3.47562e-05
 Reference value :  3.47576e-05
 Reference value :  3.47594e-05
 Reference value :  3.47655e-05
 Reference value :  3.47835e-05
 Reference value :  3.48423e-05
 Reference value :  3.50000e-05
 Reference value :  3.50001e-05
 Reference value :  3.50003e-05
 Reference value :  3.50009e-05
 Reference value :  3.50016e-05
 Reference value :  3.50031e-05
 Reference value :  3.50047e-05
 Reference value :  3.50057e-05
 Reference value :  3.50080e-05
 Reference value :  3.50101e-05
 Reference value :  3.50119e-05
 Reference value :  3.50137e-05
 Reference value :  3.50152e-05
 Reference value :  3.50181e-05
 Reference value :  3.50309e-05
 Reference value :  3.51196e-05
 Reference value :  3.52501e-05
 Reference value :  3.52502e-05
 Reference value :  3.52504e-05
 Reference value :  3.52516e-05
 Reference value :  3.52525e-05
 Reference value :  3.52538e-05
 Reference value :  3.52556e-05
 Reference value :  3.52624e-05
 Reference value :  3.53514e-05
 Reference value :  3.54444e-05
 Reference value :  3.55000e-05
 Reference value :  3.55001e-05
 Reference value :  3.55001e-05
 Reference value :  3.55003e-05
 Reference value :  3.55009e-05
 Reference value :  3.55016e-05
 Reference value :  3.55026e-05
 Reference value :  3.55036e-05
 Reference value :  3.55049e-05
 Reference value :  3.55063e-05
 Reference value :  3.55080e-05
 Reference value :  3.55098e-05
 Reference value :  3.55121e-05
 Reference value :  3.55265e-05
 Reference value :  3.56318e-05
 Reference value :  3.57501e-05
 Reference value :  3.57502e-05
 Reference value :  3.57503e-05
 Reference value :  3.57504e-05
 Reference value :  3.57516e-05
 Reference value :  3.57525e-05
 Reference value :  3.57538e-05
 Reference value :  3.57549e-05
 Reference value :  3.57563e-05
 Reference value :  3.57645e-05
 Reference value :  3.58469e-05
 Reference value :  3.60012e-05
 Reference value :  3.60035e-05
 Reference value :  3.60047e-05
 Reference value :  3.60068e-05
 Reference value :  3.60103e-05
 Reference value :  3.60118e-05
 Reference value :  3.60131e-05
 Reference value :  3.60152e-05
 Reference value :  3.60175e-05
 Reference value :  3.60214e-05
 Reference value :  3.60364e-05
 Reference value :  3.60442e-05
 Reference value :  3.60476e-05
 Reference value :  3.60551e-05
 Reference value :  3.60697e-05
 Reference value :  3.60907e-05
 Reference value :  3.61841e-05
 Reference value :  3.62501e-05
 Reference value :  3.62502e-05
 Reference value :  3.62504e-05
 Reference value :  3.62516e-05
 Reference value :  3.62525e-05
 Reference value :  3.62536e-05
 Reference value :  3.62548e-05
 Reference value :  3.62573e-05
 Reference value :  3.62702e-05
 Reference value :  3.64304e-05
 Reference value :  3.65000e-05
 Reference value :  3.65001e-05
 Reference value :  3.65003e-05
 Reference value :  3.65009e-05
 Reference value :  3.65016e-05
 Reference value :  3.65025e-05
 Reference value :  3.65036e-05
 Reference value :  3.65056e-05
 Reference value :  3.65069e-05
 Reference value :  3.65089e-05
 Reference value :  3.65122e-05
 Reference value :  3.65405e-05
 Reference value :  3.67501e-05
 Reference value :  3.67502e-05
 Reference value :  3.67502e-05
 Reference value :  3.67504e-05
 Reference value :  3.67516e-05
 Reference value :  3.67525e-05
 Reference value :  3.67538e-05
 Reference value :  3.67549e-05
 Reference value :  3.67562e-05
 Reference value :  3.67589e-05
 Reference value :  3.67620e-05
 Reference value :  3.67742e-05
 Reference value :  3.68358e-05
 Reference value :  3.70000e-05
 Reference value :  3.70001e-05
 Reference value :  3.70002e-05
 Reference value :  3.70009e-05
 Reference value :  3.70016e-05
 Reference value :  3.70026e-05
 Reference value :  3.70036e-05
 Reference value :  3.70047e-05
 Reference value :  3.70057e-05
 Reference value :  3.70081e-05
 Reference value :  3.70101e-05
 Reference value :  3.70120e-05
 Reference value :  3.70137e-05
 Reference value :  3.70152e-05
 Reference value :  3.70170e-05
 Reference value :  3.70180e-05
 Reference value :  3.70225e-05
 Reference value :  3.70540e-05
 Reference value :  3.71367e-05
 Reference value :  3.72435e-05
 Reference value :  3.72501e-05
 Reference value :  3.72502e-05
 Reference value :  3.72503e-05
 Reference value :  3.72511e-05
 Reference value :  3.72525e-05
 Reference value :  3.72538e-05
 Reference value :  3.72550e-05
 Reference value :  3.72580e-05
 Reference value :  3.72720e-05
 Reference value :  3.74645e-05
 Reference value :  3.75000e-05
 Reference value :  3.75001e-05
 Reference value :  3.75002e-05
 Reference value :  3.75009e-05
 Reference value :  3.75016e-05
 Reference value :  3.75030e-05
 Reference value :  3.75049e-05
 Reference value :  3.75062e-05
 Reference value :  3.75079e-05
 Reference value :  3.75111e-05
 Reference value :  3.75191e-05
 Reference value :  3.75691e-05
 Reference value :  3.77405e-05
 Reference value :  3.77501e-05
 Reference value :  3.77502e-05
 Reference value :  3.77502e-05
 Reference value :  3.77503e-05
 Reference value :  3.77504e-05
 Reference value :  3.77511e-05
 Reference value :  3.77520e-05
 Reference value :  3.77532e-05
 Reference value :  3.77538e-05
 Reference value :  3.77549e-05
 Reference value :  3.77562e-05
 Reference value :  3.77579e-05
 Reference value :  3.77604e-05
 Reference value :  3.77647e-05
 Reference value :  3.78017e-05
 Reference value :  3.80000e-05
 Reference value :  3.80001e-05
 Reference value :  3.80002e-05
 Reference value :  3.80009e-05
 Reference value :  3.80016e-05
 Reference value :  3.80031e-05
 Reference value :  3.80042e-05
 Reference value :  3.80052e-05
 Reference value :  3.80071e-05
 Reference value :  3.80092e-05
 Reference value :  3.80110e-05
 Reference value :  3.80120e-05
 Reference value :  3.80137e-05
 Reference value :  3.80152e-05
 Reference value :  3.80171e-05
 Reference value :  3.80190e-05
 Reference value :  3.80251e-05
 Reference value :  3.80476e-05
 Reference value :  3.80670e-05
 Reference value :  3.80759e-05
 Reference value :  3.80839e-05
 Reference value :  3.80878e-05
 Reference value :  3.80965e-05
 Reference value :  3.81208e-05
 Reference value :  3.81949e-05
 Reference value :  3.82501e-05
 Reference value :  3.82502e-05
 Reference value :  3.82502e-05
 Reference value :  3.82503e-05
 Reference value :  3.82507e-05
 Reference value :  3.82516e-05
 Reference value :  3.82525e-05
 Reference value :  3.82538e-05
 Reference value :  3.82550e-05
 Reference value :  3.82580e-05
 Reference value :  3.82658e-05
 Reference value :  3.82855e-05
 Reference value :  3.83103e-05
 Reference value :  3.83359e-05
 Reference value :  3.83556e-05
 Reference value :  3.84138e-05
 Reference value :  3.85009e-05
 Reference value :  3.85036e-05
 Reference value :  3.85066e-05
 Reference value :  3.85088e-05
 Reference value :  3.85109e-05
 Reference value :  3.85162e-05
 Reference value :  3.86805e-05
 Reference value :  3.87502e-05
 Reference value :  3.87504e-05
 Reference value :  3.87516e-05
 Reference value :  3.87525e-05
 Reference value :  3.87537e-05
 Reference value :  3.87548e-05
 Reference value :  3.87562e-05
 Reference value :  3.87588e-05
 Reference value :  3.87619e-05
 Reference value :  3.87734e-05
 Reference value :  3.88168e-05
 Reference value :  3.90000e-05
 Reference value :  3.90000e-05
 Reference value :  3.90001e-05
 Reference value :  3.90002e-05
 Reference value :  3.90003e-05
 Reference value :  3.90009e-05
 Reference value :  3.90016e-05
 Reference value :  3.90026e-05
 Reference value :  3.90036e-05
 Reference value :  3.90047e-05
 Reference value :  3.90057e-05
 Reference value :  3.90081e-05
 Reference value :  3.90101e-05
 Reference value :  3.90120e-05
 Reference value :  3.90137e-05
 Reference value :  3.90153e-05
 Reference value :  3.90182e-05
 Reference value :  3.90210e-05
 Reference value :  3.90295e-05
 Reference value :  3.90383e-05
 Reference value :  3.90515e-05
 Reference value :  3.90897e-05
 Reference value :  3.91556e-05
 Reference value :  3.92501e-05
 Reference value :  3.92502e-05
 Reference value :  3.92503e-05
 Reference value :  3.92507e-05
 Reference value :  3.92516e-05
 Reference value :  3.92520e-05
 Reference value :  3.92532e-05
 Reference value :  3.92538e-05
 Reference value :  3.92550e-05
 Reference value :  3.92580e-05
 Reference value :  3.92658e-05
 Reference value :  3.93118e-05
 Reference value :  3.95000e-05
 Reference value :  3.95001e-05
 Reference value :  3.95001e-05
 Reference value :  3.95003e-05
 Reference value :  3.95009e-05
 Reference value :  3.95016e-05
 Reference value :  3.95031e-05
 Reference value :  3.95042e-05
 Reference value :  3.95057e-05
 Reference value :  3.95063e-05
 Reference value :  3.95079e-05
 Reference value :  3.95098e-05
 Reference value :  3.95121e-05
 Reference value :  3.95416e-05
 Reference value :  3.97501e-05
 Reference value :  3.97502e-05
 Reference value :  3.97502e-05
 Reference value :  3.97503e-05
 Reference value :  3.97507e-05
 Reference value :  3.97516e-05
 Reference value :  3.97525e-05
 Reference value :  3.97538e-05
 Reference value :  3.97549e-05
 Reference value :  3.97563e-05
 Reference value :  3.97590e-05
 Reference value :  3.97645e-05
 Reference value :  3.97810e-05
 Reference value :  3.99354e-05
 Reference value :  4.00000e-05
 Reference value :  4.00001e-05
 Reference value :  4.00002e-05
 Reference value :  4.00005e-05
 Reference value :  4.00009e-05
 Reference value :  4.00016e-05
 Reference value :  4.00026e-05
 Reference value :  4.00031e-05
 Reference value :  4.00042e-05
 Reference value :  4.00052e-05
 Reference value :  4.00065e-05
 Reference value :  4.00087e-05
 Reference value :  4.00103e-05
 Reference value :  4.00119e-05
 Reference value :  4.00145e-05
 Reference value :  4.00166e-05
 Reference value :  4.00187e-05
 Reference value :  4.00218e-05
 Reference value :  4.00453e-05
 Reference value :  4.01800e-05
 Reference value :  4.02501e-05
 Reference value :  4.02502e-05
 Reference value :  4.02503e-05
 Reference value :  4.02504e-05
 Reference value :  4.02511e-05
 Reference value :  4.02520e-05
 Reference value :  4.02532e-05
 Reference value :  4.02538e-05
 Reference value :  4.02550e-05
 Reference value :  4.02565e-05
 Reference value :  4.02625e-05
 Reference value :  4.02856e-05
 Reference value :  4.03646e-05
 Reference value :  4.05000e-05
 Reference value :  4.05001e-05
 Reference value :  4.05001e-05
 Reference value :  4.05002e-05
 Reference value :  4.05003e-05
 Reference value :  4.05009e-05
 Reference value :  4.05016e-05
 Reference value :  4.05026e-05
 Reference value :  4.05031e-05
 Reference value :  4.05042e-05
 Reference value :  4.05057e-05
 Reference value :  4.05063e-05
 Reference value :  4.05079e-05
 Reference value :  4.05111e-05
 Reference value :  4.05261e-05
 Reference value :  4.07501e-05
 Reference value :  4.07502e-05
 Reference value :  4.07503e-05
 Reference value :  4.07511e-05
 Reference value :  4.07520e-05
 Reference value :  4.07532e-05
 Reference value :  4.07544e-05
 Reference value :  4.07555e-05
 Reference value :  4.07590e-05
 Reference value :  4.07811e-05
 Reference value :  4.09360e-05
 Reference value :  4.10011e-05
 Reference value :  4.10046e-05
 Reference value :  4.10058e-05
 Reference value :  4.10077e-05
 Reference value :  4.10102e-05
 Reference value :  4.10117e-05
 Reference value :  4.10130e-05
 Reference value :  4.10152e-05
 Reference value :  4.10174e-05
 Reference value :  4.10211e-05
 Reference value :  4.10386e-05
 Reference value :  4.11724e-05
 Reference value :  4.12502e-05
 Reference value :  4.12503e-05
 Reference value :  4.12516e-05
 Reference value :  4.12531e-05
 Reference value :  4.12543e-05
 Reference value :  4.12564e-05
 Reference value :  4.12712e-05
 Reference value :  4.14343e-05
 Reference value :  4.15000e-05
 Reference value :  4.15001e-05
 Reference value :  4.15003e-05
 Reference value :  4.15012e-05
 Reference value :  4.15021e-05
 Reference value :  4.15031e-05
 Reference value :  4.15049e-05
 Reference value :  4.15063e-05
 Reference value :  4.15080e-05
 Reference value :  4.15098e-05
 Reference value :  4.15121e-05
 Reference value :  4.15716e-05
 Reference value :  4.17501e-05
 Reference value :  4.17502e-05
 Reference value :  4.17504e-05
 Reference value :  4.17516e-05
 Reference value :  4.17525e-05
 Reference value :  4.17538e-05
 Reference value :  4.17549e-05
 Reference value :  4.17563e-05
 Reference value :  4.17612e-05
 Reference value :  4.18025e-05
 Reference value :  4.20000e-05
 Reference value :  4.20001e-05
 Reference value :  4.20002e-05
 Reference value :  4.20005e-05
 Reference value :  4.20012e-05
 Reference value :  4.20021e-05
 Reference value :  4.20031e-05
 Reference value :  4.20047e-05
 Reference value :  4.20058e-05
 Reference value :  4.20090e-05
 Reference value :  4.20256e-05
 Reference value :  4.22501e-05
 Reference value :  4.22502e-05
 Reference value :  4.22511e-05
 Reference value :  4.22525e-05
 Reference value :  4.22548e-05
 Reference value :  4.22584e-05
 Reference value :  4.22743e-05
 Reference value :  4.25000e-05
 Reference value :  4.25000e-05
 Reference value :  4.25000e-05
 Reference value :  4.25000e-05
 Reference value :  4.25001e-05
 Reference value :  4.25002e-05
 Reference value :  4.25007e-05
 Reference value :  4.25016e-05
 Reference value :  4.25020e-05
 Reference value :  4.25031e-05
 Reference value :  4.25042e-05
 Reference value :  4.25052e-05
 Reference value :  4.25079e-05
 Reference value :  4.25169e-05
 Reference value :  4.25228e-05
 Reference value :  4.25290e-05
 Reference value :  4.25333e-05
 Reference value :  4.25393e-05
 Reference value :  4.25442e-05
 Reference value :  4.25502e-05
 Reference value :  4.25628e-05
 Reference value :  4.25891e-05
 Reference value :  4.26814e-05
 Reference value :  4.27501e-05
 Reference value :  4.27502e-05
 Reference value :  4.27502e-05
 Reference value :  4.27503e-05
 Reference value :  4.27511e-05
 Reference value :  4.27520e-05
 Reference value :  4.27532e-05
 Reference value :  4.27538e-05
 Reference value :  4.27550e-05
 Reference value :  4.27564e-05
 Reference value :  4.27624e-05
 Reference value :  4.27849e-05
 Reference value :  4.28308e-05
 Reference value :  4.28429e-05
 Reference value :  4.28503e-05
 Reference value :  4.28666e-05
 Reference value :  4.28927e-05
 Reference value :  4.29668e-05
 Reference value :  4.30000e-05
 Reference value :  4.30001e-05
 Reference value :  4.30001e-05
 Reference value :  4.30002e-05
 Reference value :  4.30005e-05
 Reference value :  4.30009e-05
 Reference value :  4.30016e-05
 Reference value :  4.30025e-05
 Reference value :  4.30030e-05
 Reference value :  4.30041e-05
 Reference value :  4.30056e-05
 Reference value :  4.30086e-05
 Reference value :  4.30099e-05
 Reference value :  4.30126e-05
 Reference value :  4.30159e-05
 Reference value :  4.30213e-05
 Reference value :  4.30339e-05
 Reference value :  4.30802e-05
 Reference value :  4.32501e-05
 Reference value :  4.32502e-05
 Reference value :  4.32502e-05
 Reference value :  4.32503e-05
 Reference value :  4.32504e-05
 Reference value :  4.32511e-05
 Reference value :  4.32520e-05
 Reference value :  4.32532e-05
 Reference value :  4.32538e-05
 Reference value :  4.32549e-05
 Reference value :  4.32562e-05
 Reference value :  4.32576e-05
 Reference value :  4.32594e-05
 Reference value :  4.32655e-05
 Reference value :  4.32961e-05
 Reference value :  4.33842e-05
 Reference value :  4.35009e-05
 Reference value :  4.35036e-05
 Reference value :  4.35053e-05
 Reference value :  4.35060e-05
 Reference value :  4.35078e-05
 Reference value :  4.35096e-05
 Reference value :  4.35115e-05
 Reference value :  4.35125e-05
 Reference value :  4.35135e-05
 Reference value :  4.35142e-05
 Reference value :  4.35161e-05
 Reference value :  4.35180e-05
 Reference value :  4.35225e-05
 Reference value :  4.35372e-05
 Reference value :  4.36560e-05
 Reference value :  4.37501e-05
 Reference value :  4.37502e-05
 Reference value :  4.37507e-05
 Reference value :  4.37520e-05
 Reference value :  4.37537e-05
 Reference value :  4.37549e-05
 Reference value :  4.37591e-05
 Reference value :  4.38071e-05
 Reference value :  4.38958e-05
 Reference value :  4.39413e-05
 Reference value :  4.39729e-05
 Reference value :  4.40000e-05
 Reference value :  4.40001e-05
 Reference value :  4.40001e-05
 Reference value :  4.40003e-05
 Reference value :  4.40009e-05
 Reference value :  4.40016e-05
 Reference value :  4.40026e-05
 Reference value :  4.40036e-05
 Reference value :  4.40049e-05
 Reference value :  4.40063e-05
 Reference value :  4.40080e-05
 Reference value :  4.40109e-05
 Reference value :  4.40190e-05
 Reference value :  4.41319e-05
 Reference value :  4.42501e-05
 Reference value :  4.42502e-05
 Reference value :  4.42504e-05
 Reference value :  4.42516e-05
 Reference value :  4.42525e-05
 Reference value :  4.42538e-05
 Reference value :  4.42549e-05
 Reference value :  4.42563e-05
 Reference value :  4.42612e-05
 Reference value :  4.43029e-05
 Reference value :  4.45000e-05
 Reference value :  4.45001e-05
 Reference value :  4.45001e-05
 Reference value :  4.45002e-05
 Reference value :  4.45003e-05
 Reference value :  4.45009e-05
 Reference value :  4.45016e-05
 Reference value :  4.45031e-05
 Reference value :  4.45042e-05
 Reference value :  4.45052e-05
 Reference value :  4.45073e-05
 Reference value :  4.45103e-05
 Reference value :  4.45134e-05
 Reference value :  4.45156e-05
 Reference value :  4.45176e-05
 Reference value :  4.45219e-05
 Reference value :  4.45349e-05
 Reference value :  4.45438e-05
 Reference value :  4.45513e-05
 Reference value :  4.45625e-05
 Reference value :  4.45873e-05
 Reference value :  4.47186e-05
 Reference value :  4.47502e-05
 Reference value :  4.47503e-05
 Reference value :  4.47511e-05
 Reference value :  4.47525e-05
 Reference value :  4.47537e-05
 Reference value :  4.47557e-05
 Reference value :  4.47597e-05
 Reference value :  4.47726e-05
 Reference value :  4.48659e-05
 Reference value :  4.50000e-05
 Reference value :  4.50001e-05
 Reference value :  4.50001e-05
 Reference value :  4.50002e-05
 Reference value :  4.50005e-05
 Reference value :  4.50009e-05
 Reference value :  4.50016e-05
 Reference value :  4.50025e-05
 Reference value :  4.50030e-05
[...]
 Reference value :  1.65518e-04
 Reference value :  1.65523e-04
 Reference value :  1.65539e-04
 Reference value :  1.65548e-04
 Reference value :  1.65562e-04
 Reference value :  1.65565e-04
 Reference value :  1.65572e-04
 Reference value :  1.65586e-04
 Reference value :  1.65602e-04
 Reference value :  1.65621e-04
 Reference value :  1.65715e-04
 Reference value :  1.65750e-04
 Reference value :  1.65750e-04
 Reference value :  1.65750e-04
 Reference value :  1.65751e-04
 Reference value :  1.65753e-04
 Reference value :  1.65754e-04
 Reference value :  1.65755e-04
 Reference value :  1.65758e-04
 Reference value :  1.65785e-04
 Reference value :  1.66000e-04
 Reference value :  1.66000e-04
 Reference value :  1.66000e-04
 Reference value :  1.66000e-04
 Reference value :  1.66001e-04
 Reference value :  1.66002e-04
 Reference value :  1.66003e-04
 Reference value :  1.66005e-04
 Reference value :  1.66006e-04
 Reference value :  1.66008e-04
 Reference value :  1.66010e-04
 Reference value :  1.66012e-04
 Reference value :  1.66042e-04
 Reference value :  1.66250e-04
 Reference value :  1.66250e-04
 Reference value :  1.66250e-04
 Reference value :  1.66252e-04
 Reference value :  1.66253e-04
 Reference value :  1.66254e-04
 Reference value :  1.66255e-04
 Reference value :  1.66259e-04
 Reference value :  1.66303e-04
 Reference value :  1.66500e-04
 Reference value :  1.66500e-04
 Reference value :  1.66501e-04
 Reference value :  1.66502e-04
 Reference value :  1.66504e-04
 Reference value :  1.66505e-04
 Reference value :  1.66507e-04
 Reference value :  1.66510e-04
 Reference value :  1.66515e-04
 Reference value :  1.66518e-04
 Reference value :  1.66524e-04
 Reference value :  1.66542e-04
 Reference value :  1.66550e-04
 Reference value :  1.66565e-04
 Reference value :  1.66580e-04
 Reference value :  1.66595e-04
 Reference value :  1.66636e-04
 Reference value :  1.66750e-04
 Reference value :  1.66750e-04
 Reference value :  1.66750e-04
 Reference value :  1.66751e-04
 Reference value :  1.66752e-04
 Reference value :  1.66754e-04
 Reference value :  1.66756e-04
 Reference value :  1.66763e-04
 Reference value :  1.66813e-04
 Reference value :  1.67000e-04
 Reference value :  1.67000e-04
 Reference value :  1.67000e-04
 Reference value :  1.67001e-04
 Reference value :  1.67002e-04
 Reference value :  1.67003e-04
 Reference value :  1.67004e-04
 Reference value :  1.67006e-04
 Reference value :  1.67006e-04
 Reference value :  1.67008e-04
 Reference value :  1.67010e-04
 Reference value :  1.67015e-04
 Reference value :  1.67040e-04
 Reference value :  1.67239e-04
 Reference value :  1.67250e-04
 Reference value :  1.67250e-04
 Reference value :  1.67250e-04
 Reference value :  1.67251e-04
 Reference value :  1.67252e-04
 Reference value :  1.67253e-04
 Reference value :  1.67254e-04
 Reference value :  1.67255e-04
 Reference value :  1.67257e-04
 Reference value :  1.67259e-04
 Reference value :  1.67265e-04
 Reference value :  1.67302e-04
 Reference value :  1.67500e-04
 Reference value :  1.67500e-04
 Reference value :  1.67501e-04
 Reference value :  1.67503e-04
 Reference value :  1.67505e-04
 Reference value :  1.67508e-04
 Reference value :  1.67511e-04
 Reference value :  1.67514e-04
 Reference value :  1.67517e-04
 Reference value :  1.67526e-04
 Reference value :  1.67538e-04
 Reference value :  1.67548e-04
 Reference value :  1.67636e-04
 Reference value :  1.67750e-04
 Reference value :  1.67750e-04
 Reference value :  1.67752e-04
 Reference value :  1.67754e-04
 Reference value :  1.67758e-04
 Reference value :  1.67812e-04
 Reference value :  1.68000e-04
 Reference value :  1.68000e-04
 Reference value :  1.68000e-04
 Reference value :  1.68001e-04
 Reference value :  1.68002e-04
 Reference value :  1.68003e-04
 Reference value :  1.68004e-04
 Reference value :  1.68006e-04
 Reference value :  1.68007e-04
 Reference value :  1.68009e-04
 Reference value :  1.68011e-04
 Reference value :  1.68026e-04
 Reference value :  1.68250e-04
 Reference value :  1.68250e-04
 Reference value :  1.68250e-04
 Reference value :  1.68251e-04
 Reference value :  1.68252e-04
 Reference value :  1.68253e-04
 Reference value :  1.68254e-04
 Reference value :  1.68255e-04
 Reference value :  1.68259e-04
 Reference value :  1.68303e-04
 Reference value :  1.68500e-04
 Reference value :  1.68500e-04
 Reference value :  1.68500e-04
 Reference value :  1.68501e-04
 Reference value :  1.68502e-04
 Reference value :  1.68503e-04
 Reference value :  1.68504e-04
 Reference value :  1.68505e-04
 Reference value :  1.68507e-04
 Reference value :  1.68510e-04
 Reference value :  1.68513e-04
 Reference value :  1.68516e-04
 Reference value :  1.68518e-04
 Reference value :  1.68520e-04
 Reference value :  1.68536e-04
 Reference value :  1.68650e-04
 Reference value :  1.68750e-04
 Reference value :  1.68750e-04
 Reference value :  1.68751e-04
 Reference value :  1.68752e-04
 Reference value :  1.68754e-04
 Reference value :  1.68755e-04
 Reference value :  1.68760e-04
 Reference value :  1.68772e-04
 Reference value :  1.68864e-04
 Reference value :  1.68916e-04
 Reference value :  1.68980e-04
 Reference value :  1.69000e-04
 Reference value :  1.69000e-04
 Reference value :  1.69000e-04
 Reference value :  1.69001e-04
 Reference value :  1.69002e-04
 Reference value :  1.69004e-04
 Reference value :  1.69006e-04
 Reference value :  1.69008e-04
 Reference value :  1.69012e-04
 Reference value :  1.69041e-04
 Reference value :  1.69250e-04
 Reference value :  1.69250e-04
 Reference value :  1.69250e-04
 Reference value :  1.69252e-04
 Reference value :  1.69254e-04
 Reference value :  1.69255e-04
 Reference value :  1.69257e-04
 Reference value :  1.69262e-04
 Reference value :  1.69301e-04
 Reference value :  1.69500e-04
 Reference value :  1.69500e-04
 Reference value :  1.69501e-04
 Reference value :  1.69502e-04
 Reference value :  1.69503e-04
 Reference value :  1.69504e-04
 Reference value :  1.69505e-04
 Reference value :  1.69506e-04
 Reference value :  1.69508e-04
 Reference value :  1.69509e-04
 Reference value :  1.69511e-04
 Reference value :  1.69516e-04
 Reference value :  1.69520e-04
 Reference value :  1.69526e-04
 Reference value :  1.69553e-04
 Reference value :  1.69750e-04
 Reference value :  1.69750e-04
 Reference value :  1.69750e-04
 Reference value :  1.69751e-04
 Reference value :  1.69752e-04
 Reference value :  1.69754e-04
 Reference value :  1.69757e-04
 Reference value :  1.69763e-04
 Reference value :  1.69819e-04
 Reference value :  1.70000e-04
 Reference value :  1.70000e-04
 Reference value :  1.70000e-04
 Reference value :  1.70000e-04
 Reference value :  1.70000e-04
 Reference value :  1.70000e-04
 Reference value :  1.70002e-04
 Reference value :  1.70003e-04
 Reference value :  1.70004e-04
 Reference value :  1.70005e-04
 Reference value :  1.70007e-04
 Reference value :  1.70017e-04
 Reference value :  1.70023e-04
 Reference value :  1.70029e-04
 Reference value :  1.70037e-04
 Reference value :  1.70045e-04
 Reference value :  1.70057e-04
 Reference value :  1.70077e-04
 Reference value :  1.70127e-04
 Reference value :  1.70250e-04
 Reference value :  1.70250e-04
 Reference value :  1.70250e-04
 Reference value :  1.70250e-04
 Reference value :  1.70252e-04
 Reference value :  1.70253e-04
 Reference value :  1.70254e-04
 Reference value :  1.70255e-04
 Reference value :  1.70258e-04
 Reference value :  1.70272e-04
 Reference value :  1.70337e-04
 Reference value :  1.70356e-04
 Reference value :  1.70369e-04
 Reference value :  1.70388e-04
 Reference value :  1.70422e-04
 Reference value :  1.70500e-04
 Reference value :  1.70500e-04
 Reference value :  1.70500e-04
 Reference value :  1.70501e-04
 Reference value :  1.70501e-04
 Reference value :  1.70502e-04
 Reference value :  1.70503e-04
 Reference value :  1.70505e-04
 Reference value :  1.70509e-04
 Reference value :  1.70511e-04
 Reference value :  1.70513e-04
 Reference value :  1.70516e-04
 Reference value :  1.70526e-04
 Reference value :  1.70641e-04
 Reference value :  1.70750e-04
 Reference value :  1.70750e-04
 Reference value :  1.70750e-04
 Reference value :  1.70751e-04
 Reference value :  1.70752e-04
 Reference value :  1.70753e-04
 Reference value :  1.70754e-04
 Reference value :  1.70755e-04
 Reference value :  1.70756e-04
 Reference value :  1.70758e-04
 Reference value :  1.70759e-04
 Reference value :  1.70766e-04
 Reference value :  1.70783e-04
 Reference value :  1.70842e-04
 Reference value :  1.71000e-04
 Reference value :  1.71000e-04
 Reference value :  1.71000e-04
 Reference value :  1.71001e-04
 Reference value :  1.71002e-04
 Reference value :  1.71003e-04
 Reference value :  1.71005e-04
 Reference value :  1.71006e-04
 Reference value :  1.71008e-04
 Reference value :  1.71010e-04
 Reference value :  1.71012e-04
 Reference value :  1.71014e-04
 Reference value :  1.71015e-04
 Reference value :  1.71018e-04
 Reference value :  1.71022e-04
 Reference value :  1.71051e-04
 Reference value :  1.71182e-04
 Reference value :  1.71250e-04
 Reference value :  1.71250e-04
 Reference value :  1.71251e-04
 Reference value :  1.71252e-04
 Reference value :  1.71253e-04
 Reference value :  1.71254e-04
 Reference value :  1.71256e-04
 Reference value :  1.71266e-04
 Reference value :  1.71341e-04
 Reference value :  1.71401e-04
 Reference value :  1.71434e-04
 Reference value :  1.71486e-04
 Reference value :  1.71500e-04
 Reference value :  1.71500e-04
 Reference value :  1.71500e-04
 Reference value :  1.71501e-04
 Reference value :  1.71502e-04
 Reference value :  1.71503e-04
 Reference value :  1.71505e-04
 Reference value :  1.71506e-04
 Reference value :  1.71508e-04
 Reference value :  1.71512e-04
 Reference value :  1.71632e-04
 Reference value :  1.71750e-04
 Reference value :  1.71751e-04
 Reference value :  1.71753e-04
 Reference value :  1.71754e-04
 Reference value :  1.71755e-04
 Reference value :  1.71757e-04
 Reference value :  1.71764e-04
 Reference value :  1.71847e-04
 Reference value :  1.72000e-04
 Reference value :  1.72000e-04
 Reference value :  1.72000e-04
 Reference value :  1.72001e-04
 Reference value :  1.72002e-04
 Reference value :  1.72003e-04
 Reference value :  1.72004e-04
 Reference value :  1.72005e-04
 Reference value :  1.72006e-04
 Reference value :  1.72009e-04
 Reference value :  1.72010e-04
 Reference value :  1.72013e-04
 Reference value :  1.72015e-04
 Reference value :  1.72016e-04
 Reference value :  1.72019e-04
 Reference value :  1.72029e-04
 Reference value :  1.72041e-04
 Reference value :  1.72046e-04
 Reference value :  1.72055e-04
 Reference value :  1.72068e-04
 Reference value :  1.72080e-04
 Reference value :  1.72108e-04
 Reference value :  1.72238e-04
 Reference value :  1.72250e-04
 Reference value :  1.72250e-04
 Reference value :  1.72250e-04
 Reference value :  1.72250e-04
 Reference value :  1.72251e-04
 Reference value :  1.72252e-04
 Reference value :  1.72254e-04
 Reference value :  1.72256e-04
 Reference value :  1.72263e-04
 Reference value :  1.72473e-04
 Reference value :  1.72500e-04
 Reference value :  1.72500e-04
 Reference value :  1.72501e-04
 Reference value :  1.72503e-04
 Reference value :  1.72506e-04
 Reference value :  1.72508e-04
 Reference value :  1.72515e-04
 Reference value :  1.72739e-04
 Reference value :  1.72750e-04
 Reference value :  1.72750e-04
 Reference value :  1.72752e-04
 Reference value :  1.72753e-04
 Reference value :  1.72755e-04
 Reference value :  1.72757e-04
 Reference value :  1.72765e-04
 Reference value :  1.72904e-04
 Reference value :  1.73000e-04
 Reference value :  1.73000e-04
 Reference value :  1.73002e-04
 Reference value :  1.73004e-04
 Reference value :  1.73005e-04
 Reference value :  1.73008e-04
 Reference value :  1.73011e-04
 Reference value :  1.73014e-04
 Reference value :  1.73016e-04
 Reference value :  1.73019e-04
 Reference value :  1.73039e-04
 Reference value :  1.73132e-04
 Reference value :  1.73177e-04
 Reference value :  1.73236e-04
 Reference value :  1.73250e-04
 Reference value :  1.73250e-04
 Reference value :  1.73252e-04
 Reference value :  1.73253e-04
 Reference value :  1.73254e-04
 Reference value :  1.73258e-04
 Reference value :  1.73285e-04
 Reference value :  1.73500e-04
 Reference value :  1.73500e-04
 Reference value :  1.73501e-04
 Reference value :  1.73502e-04
 Reference value :  1.73503e-04
 Reference value :  1.73505e-04
 Reference value :  1.73506e-04
 Reference value :  1.73509e-04
 Reference value :  1.73512e-04
 Reference value :  1.73541e-04
 Reference value :  1.73750e-04
 Reference value :  1.73750e-04
 Reference value :  1.73750e-04
 Reference value :  1.73752e-04
 Reference value :  1.73754e-04
 Reference value :  1.73755e-04
 Reference value :  1.73758e-04
 Reference value :  1.73765e-04
 Reference value :  1.73905e-04
 Reference value :  1.74000e-04
 Reference value :  1.74000e-04
 Reference value :  1.74001e-04
 Reference value :  1.74002e-04
 Reference value :  1.74004e-04
 Reference value :  1.74005e-04
 Reference value :  1.74008e-04
 Reference value :  1.74010e-04
 Reference value :  1.74012e-04
 Reference value :  1.74014e-04
 Reference value :  1.74016e-04
 Reference value :  1.74021e-04
 Reference value :  1.74048e-04
 Reference value :  1.74062e-04
 Reference value :  1.74076e-04
 Reference value :  1.74108e-04
 Reference value :  1.74250e-04
 Reference value :  1.74250e-04
 Reference value :  1.74250e-04
 Reference value :  1.74252e-04
 Reference value :  1.74253e-04
 Reference value :  1.74255e-04
 Reference value :  1.74260e-04
 Reference value :  1.74364e-04
 Reference value :  1.74500e-04
 Reference value :  1.74500e-04
 Reference value :  1.74502e-04
 Reference value :  1.74503e-04
 Reference value :  1.74504e-04
 Reference value :  1.74506e-04
 Reference value :  1.74508e-04
 Reference value :  1.74511e-04
 Reference value :  1.74526e-04
 Reference value :  1.74750e-04
 Reference value :  1.74750e-04
 Reference value :  1.74750e-04
 Reference value :  1.74752e-04
 Reference value :  1.74753e-04
 Reference value :  1.74755e-04
 Reference value :  1.74756e-04
 Reference value :  1.74761e-04
 Reference value :  1.74803e-04
 Reference value :  1.75000e-04
 Reference value :  1.75000e-04
 Reference value :  1.75000e-04
 Reference value :  1.75001e-04
 Reference value :  1.75002e-04
 Reference value :  1.75003e-04
 Reference value :  1.75004e-04
 Reference value :  1.75005e-04
 Reference value :  1.75006e-04
 Reference value :  1.75010e-04
 Reference value :  1.75013e-04
 Reference value :  1.75016e-04
 Reference value :  1.75018e-04
 Reference value :  1.75020e-04
 Reference value :  1.75029e-04
 Reference value :  1.75043e-04
 Reference value :  1.75050e-04
 Reference value :  1.75066e-04
 Reference value :  1.75081e-04
 Reference value :  1.75106e-04
 Reference value :  1.75173e-04
 Reference value :  1.75250e-04
 Reference value :  1.75250e-04
 Reference value :  1.75250e-04
 Reference value :  1.75250e-04
 Reference value :  1.75252e-04
 Reference value :  1.75253e-04
 Reference value :  1.75254e-04
 Reference value :  1.75256e-04
 Reference value :  1.75260e-04
 Reference value :  1.75286e-04
 Reference value :  1.75500e-04
 Reference value :  1.75500e-04
 Reference value :  1.75500e-04
 Reference value :  1.75500e-04
 Reference value :  1.75501e-04
 Reference value :  1.75502e-04
 Reference value :  1.75503e-04
 Reference value :  1.75504e-04
 Reference value :  1.75506e-04
 Reference value :  1.75506e-04
 Reference value :  1.75508e-04
 Reference value :  1.75511e-04
 Reference value :  1.75526e-04
 Reference value :  1.75739e-04
 Reference value :  1.75750e-04
 Reference value :  1.75750e-04
 Reference value :  1.75752e-04
 Reference value :  1.75754e-04
 Reference value :  1.75755e-04
 Reference value :  1.75756e-04
 Reference value :  1.75759e-04
 Reference value :  1.75768e-04
 Reference value :  1.75836e-04
 Reference value :  1.76000e-04
 Reference value :  1.76000e-04
 Reference value :  1.76000e-04
 Reference value :  1.76001e-04
 Reference value :  1.76002e-04
 Reference value :  1.76003e-04
 Reference value :  1.76005e-04
 Reference value :  1.76006e-04
 Reference value :  1.76008e-04
 Reference value :  1.76010e-04
 Reference value :  1.76012e-04
 Reference value :  1.76014e-04
 Reference value :  1.76015e-04
 Reference value :  1.76018e-04
 Reference value :  1.76026e-04
 Reference value :  1.76030e-04
 Reference value :  1.76038e-04
 Reference value :  1.76048e-04
 Reference value :  1.76091e-04
 Reference value :  1.76250e-04
 Reference value :  1.76250e-04
 Reference value :  1.76250e-04
 Reference value :  1.76250e-04
 Reference value :  1.76252e-04
 Reference value :  1.76253e-04
 Reference value :  1.76254e-04
 Reference value :  1.76255e-04
 Reference value :  1.76258e-04
 Reference value :  1.76272e-04
 Reference value :  1.76469e-04
 Reference value :  1.76500e-04
 Reference value :  1.76500e-04
 Reference value :  1.76501e-04
 Reference value :  1.76501e-04
 Reference value :  1.76502e-04
 Reference value :  1.76503e-04
 Reference value :  1.76505e-04
 Reference value :  1.76506e-04
 Reference value :  1.76508e-04
 Reference value :  1.76509e-04
 Reference value :  1.76511e-04
 Reference value :  1.76512e-04
 Reference value :  1.76526e-04
 Reference value :  1.76632e-04
 Reference value :  1.76750e-04
 Reference value :  1.76750e-04
 Reference value :  1.76750e-04
 Reference value :  1.76750e-04
 Reference value :  1.76752e-04
 Reference value :  1.76753e-04
 Reference value :  1.76754e-04
 Reference value :  1.76755e-04
 Reference value :  1.76757e-04
 Reference value :  1.76770e-04
 Reference value :  1.76847e-04
 Reference value :  1.77000e-04
 Reference value :  1.77000e-04
 Reference value :  1.77000e-04
 Reference value :  1.77000e-04
 Reference value :  1.77001e-04
 Reference value :  1.77003e-04
 Reference value :  1.77004e-04
 Reference value :  1.77006e-04
 Reference value :  1.77010e-04
 Reference value :  1.77013e-04
 Reference value :  1.77016e-04
 Reference value :  1.77018e-04
 Reference value :  1.77024e-04
 Reference value :  1.77115e-04
 Reference value :  1.77250e-04
 Reference value :  1.77250e-04
 Reference value :  1.77251e-04
 Reference value :  1.77253e-04
 Reference value :  1.77254e-04
 Reference value :  1.77256e-04
 Reference value :  1.77263e-04
 Reference value :  1.77365e-04
 Reference value :  1.77500e-04
 Reference value :  1.77500e-04
 Reference value :  1.77501e-04
 Reference value :  1.77501e-04
 Reference value :  1.77503e-04
 Reference value :  1.77504e-04
 Reference value :  1.77506e-04
 Reference value :  1.77506e-04
 Reference value :  1.77508e-04
 Reference value :  1.77510e-04
 Reference value :  1.77512e-04
 Reference value :  1.77542e-04
 Reference value :  1.77750e-04
 Reference value :  1.77750e-04
 Reference value :  1.77750e-04
 Reference value :  1.77751e-04
 Reference value :  1.77752e-04
 Reference value :  1.77753e-04
 Reference value :  1.77754e-04
 Reference value :  1.77755e-04
 Reference value :  1.77756e-04
 Reference value :  1.77761e-04
 Reference value :  1.77802e-04
 Reference value :  1.78000e-04
 Reference value :  1.78000e-04
 Reference value :  1.78000e-04
 Reference value :  1.78001e-04
 Reference value :  1.78001e-04
 Reference value :  1.78002e-04
 Reference value :  1.78003e-04
 Reference value :  1.78005e-04
 Reference value :  1.78006e-04
 Reference value :  1.78008e-04
 Reference value :  1.78010e-04
 Reference value :  1.78026e-04
 Reference value :  1.78135e-04
 Reference value :  1.78250e-04
 Reference value :  1.78250e-04
 Reference value :  1.78250e-04
 Reference value :  1.78252e-04
 Reference value :  1.78253e-04
 Reference value :  1.78254e-04
 Reference value :  1.78257e-04
 Reference value :  1.78260e-04
 Reference value :  1.78289e-04
 Reference value :  1.78500e-04
No. of Data Rows : 26284
ngspice-44 done
