
Note: Compatibility modes selected: hs a


Circuit: ** sch_path: /home/ece/cace/sar-adc-using-sky130-pdk/runs/run_2025-09-13_02-23-31/parameters/sndr/run_4/sndr_enob_fom.sch

option SCALE: Scale is set to 1e-06 for instance and model parameters
option SCALE: Scale is set to 1e-06 for instance and model parameters
option SCALE: Scale is set to 1e-06 for instance and model parameters
option SCALE: Scale is set to 1e-06 for instance and model parameters
Doing analysis at TEMP = 27.000000 and TNOM = 27.000000

Using KLU as Direct Linear Solver
Operating point simulation skipped by 'uic',
  now using transient initial conditions.
 Reference value :  1.00000e-12
 Reference value :  1.18820e-12
 Reference value :  4.31372e-12
 Reference value :  3.09940e-11
 Reference value :  1.00000e-10
 Reference value :  1.01435e-10
 Reference value :  1.48902e-10
 Reference value :  7.73318e-10
 Reference value :  2.13351e-09
 Reference value :  4.40338e-09
 Reference value :  7.17192e-09
 Reference value :  9.57317e-09
 Reference value :  1.22717e-08
 Reference value :  1.45352e-08
 Reference value :  2.68763e-08
 Reference value :  5.37506e-08
 Reference value :  2.50110e-07
 Reference value :  2.50253e-07
 Reference value :  2.50652e-07
 Reference value :  2.51636e-07
 Reference value :  2.53418e-07
 Reference value :  2.54619e-07
 Reference value :  2.56689e-07
 Reference value :  2.63917e-07
 Reference value :  5.00000e-07
 Reference value :  5.00124e-07
 Reference value :  5.00825e-07
 Reference value :  5.02189e-07
 Reference value :  5.03256e-07
 Reference value :  5.05211e-07
 Reference value :  5.09047e-07
 Reference value :  5.11597e-07
 Reference value :  5.14751e-07
 Reference value :  5.20487e-07
 Reference value :  5.64030e-07
 Reference value :  7.50130e-07
 Reference value :  7.50224e-07
 Reference value :  7.50684e-07
 Reference value :  7.51387e-07
 Reference value :  7.53028e-07
 Reference value :  7.54422e-07
 Reference value :  7.56662e-07
 Reference value :  7.61365e-07
 Reference value :  8.07721e-07
 Reference value :  1.00000e-06
 Reference value :  1.00007e-06
 Reference value :  1.00012e-06
 Reference value :  1.00034e-06
 Reference value :  1.00128e-06
 Reference value :  1.00219e-06
 Reference value :  1.00329e-06
 Reference value :  1.00441e-06
 Reference value :  1.00557e-06
 Reference value :  1.00671e-06
 Reference value :  1.00995e-06
 Reference value :  1.01278e-06
 Reference value :  1.01493e-06
 Reference value :  1.01708e-06
 Reference value :  1.02106e-06
 Reference value :  1.04083e-06
 Reference value :  1.22163e-06
 Reference value :  1.25017e-06
 Reference value :  1.25022e-06
 Reference value :  1.25044e-06
 Reference value :  1.25138e-06
 Reference value :  1.25303e-06
 Reference value :  1.25440e-06
 Reference value :  1.25670e-06
 Reference value :  1.26153e-06
 Reference value :  1.30788e-06
 Reference value :  1.50001e-06
 Reference value :  1.50010e-06
 Reference value :  1.50022e-06
 Reference value :  1.50083e-06
 Reference value :  1.50176e-06
 Reference value :  1.50268e-06
 Reference value :  1.50382e-06
 Reference value :  1.50509e-06
 Reference value :  1.50720e-06
 Reference value :  1.50932e-06
 Reference value :  1.51157e-06
 Reference value :  1.52870e-06
 Reference value :  1.75010e-06
 Reference value :  1.75020e-06
 Reference value :  1.75032e-06
 Reference value :  1.75138e-06
 Reference value :  1.75302e-06
 Reference value :  1.75507e-06
 Reference value :  1.75928e-06
 Reference value :  1.84448e-06
 Reference value :  2.00007e-06
 Reference value :  2.00022e-06
 Reference value :  2.00128e-06
 Reference value :  2.00268e-06
 Reference value :  2.00391e-06
 Reference value :  2.00498e-06
 Reference value :  2.00609e-06
 Reference value :  2.00999e-06
 Reference value :  2.01280e-06
 Reference value :  2.01603e-06
 Reference value :  2.01707e-06
 Reference value :  2.01938e-06
 Reference value :  2.02274e-06
 Reference value :  2.03746e-06
 Reference value :  2.04433e-06
 Reference value :  2.05795e-06
 Reference value :  2.07103e-06
 Reference value :  2.09330e-06
 Reference value :  2.17372e-06
 Reference value :  2.25013e-06
 Reference value :  2.25021e-06
 Reference value :  2.25032e-06
 Reference value :  2.25095e-06
 Reference value :  2.25185e-06
 Reference value :  2.25373e-06
 Reference value :  2.25578e-06
 Reference value :  2.26185e-06
 Reference value :  2.30641e-06
 Reference value :  2.50000e-06
 Reference value :  2.50007e-06
 Reference value :  2.50012e-06
 Reference value :  2.50034e-06
 Reference value :  2.50129e-06
 Reference value :  2.50218e-06
 Reference value :  2.50395e-06
 Reference value :  2.50553e-06
 Reference value :  2.50734e-06
 Reference value :  2.50903e-06
 Reference value :  2.51241e-06
 Reference value :  2.54752e-06
 Reference value :  2.75011e-06
 Reference value :  2.75021e-06
 Reference value :  2.75068e-06
 Reference value :  2.75185e-06
 Reference value :  2.75376e-06
 Reference value :  2.75577e-06
 Reference value :  2.75843e-06
 Reference value :  2.76488e-06
 Reference value :  2.84984e-06
 Reference value :  3.00003e-06
 Reference value :  3.00012e-06
 Reference value :  3.00050e-06
 Reference value :  3.00128e-06
 Reference value :  3.00219e-06
 Reference value :  3.00329e-06
 Reference value :  3.00441e-06
 Reference value :  3.00556e-06
 Reference value :  3.00670e-06
 Reference value :  3.00973e-06
 Reference value :  3.01071e-06
 Reference value :  3.01285e-06
 Reference value :  3.01452e-06
 Reference value :  3.01646e-06
 Reference value :  3.01853e-06
 Reference value :  3.02308e-06
 Reference value :  3.03758e-06
 Reference value :  3.04344e-06
 Reference value :  3.05011e-06
 Reference value :  3.05397e-06
 Reference value :  3.07088e-06
 Reference value :  3.13701e-06
 Reference value :  3.25010e-06
 Reference value :  3.25017e-06
 Reference value :  3.25026e-06
 Reference value :  3.25069e-06
 Reference value :  3.25138e-06
 Reference value :  3.25302e-06
 Reference value :  3.25438e-06
 Reference value :  3.25666e-06
 Reference value :  3.26142e-06
 Reference value :  3.28444e-06
 Reference value :  3.50000e-06
 Reference value :  3.50007e-06
 Reference value :  3.50012e-06
 Reference value :  3.50034e-06
 Reference value :  3.50128e-06
 Reference value :  3.50219e-06
 Reference value :  3.50323e-06
 Reference value :  3.50442e-06
 Reference value :  3.50719e-06
 Reference value :  3.50930e-06
 Reference value :  3.51158e-06
 Reference value :  3.54486e-06
 Reference value :  3.75011e-06
 Reference value :  3.75020e-06
 Reference value :  3.75032e-06
 Reference value :  3.75094e-06
 Reference value :  3.75185e-06
 Reference value :  3.75377e-06
 Reference value :  3.75577e-06
 Reference value :  3.76143e-06
 Reference value :  3.78429e-06
 Reference value :  4.00000e-06
 Reference value :  4.00010e-06
 Reference value :  4.00034e-06
 Reference value :  4.00128e-06
 Reference value :  4.00219e-06
 Reference value :  4.00329e-06
 Reference value :  4.00440e-06
 Reference value :  4.00557e-06
 Reference value :  4.00609e-06
 Reference value :  4.00757e-06
 Reference value :  4.00999e-06
 Reference value :  4.01143e-06
 Reference value :  4.01280e-06
 Reference value :  4.01388e-06
 Reference value :  4.01603e-06
 Reference value :  4.01707e-06
 Reference value :  4.01937e-06
 Reference value :  4.02610e-06
 Reference value :  4.03683e-06
 Reference value :  4.04520e-06
 Reference value :  4.05950e-06
 Reference value :  4.09724e-06
 Reference value :  4.22792e-06
 Reference value :  4.25013e-06
 Reference value :  4.25022e-06
 Reference value :  4.25069e-06
 Reference value :  4.25185e-06
 Reference value :  4.25373e-06
 Reference value :  4.25578e-06
 Reference value :  4.25787e-06
 Reference value :  4.26605e-06
 Reference value :  4.30536e-06
 Reference value :  4.50001e-06
 Reference value :  4.50010e-06
 Reference value :  4.50016e-06
 Reference value :  4.50050e-06
 Reference value :  4.50129e-06
 Reference value :  4.50218e-06
 Reference value :  4.50332e-06
 Reference value :  4.50473e-06
 Reference value :  4.50657e-06
 Reference value :  4.50817e-06
 Reference value :  4.50903e-06
 Reference value :  4.51119e-06
 Reference value :  4.51957e-06
 Reference value :  4.58491e-06
 Reference value :  4.75011e-06
 Reference value :  4.75020e-06
 Reference value :  4.75026e-06
 Reference value :  4.75068e-06
 Reference value :  4.75138e-06
 Reference value :  4.75235e-06
 Reference value :  4.75376e-06
 Reference value :  4.75439e-06
 Reference value :  4.75576e-06
 Reference value :  4.75757e-06
 Reference value :  4.75933e-06
 Reference value :  4.76485e-06
 Reference value :  4.78744e-06
 Reference value :  5.00000e-06
 Reference value :  5.00007e-06
 Reference value :  5.00011e-06
 Reference value :  5.00016e-06
 Reference value :  5.00034e-06
 Reference value :  5.00128e-06
 Reference value :  5.00219e-06
 Reference value :  5.00329e-06
 Reference value :  5.00441e-06
 Reference value :  5.00556e-06
 Reference value :  5.00670e-06
 Reference value :  5.00973e-06
 Reference value :  5.01071e-06
 Reference value :  5.01285e-06
 Reference value :  5.01368e-06
 Reference value :  5.01556e-06
 Reference value :  5.01757e-06
 Reference value :  5.02173e-06
 Reference value :  5.02828e-06
 Reference value :  5.03156e-06
 Reference value :  5.03729e-06
 Reference value :  5.05082e-06
 Reference value :  5.10842e-06
 Reference value :  5.25011e-06
 Reference value :  5.25021e-06
 Reference value :  5.25045e-06
 Reference value :  5.25138e-06
 Reference value :  5.25302e-06
 Reference value :  5.25438e-06
 Reference value :  5.25665e-06
 Reference value :  5.26544e-06
 Reference value :  5.34131e-06
 Reference value :  5.50003e-06
 Reference value :  5.50011e-06
 Reference value :  5.50022e-06
 Reference value :  5.50128e-06
 Reference value :  5.50219e-06
 Reference value :  5.50323e-06
 Reference value :  5.50442e-06
 Reference value :  5.50616e-06
 Reference value :  5.50818e-06
 Reference value :  5.51158e-06
 Reference value :  5.54485e-06
 Reference value :  5.75011e-06
 Reference value :  5.75020e-06
 Reference value :  5.75032e-06
 Reference value :  5.75094e-06
 Reference value :  5.75185e-06
 Reference value :  5.75302e-06
 Reference value :  5.75439e-06
 Reference value :  5.75671e-06
 Reference value :  5.77258e-06
 Reference value :  6.00000e-06
 Reference value :  6.00007e-06
 Reference value :  6.00016e-06
 Reference value :  6.00083e-06
 Reference value :  6.00176e-06
 Reference value :  6.00268e-06
 Reference value :  6.00391e-06
 Reference value :  6.00440e-06
 Reference value :  6.00557e-06
 Reference value :  6.00609e-06
 Reference value :  6.00758e-06
 Reference value :  6.00999e-06
 Reference value :  6.01280e-06
 Reference value :  6.01388e-06
 Reference value :  6.01602e-06
 Reference value :  6.01818e-06
 Reference value :  6.02273e-06
 Reference value :  6.03662e-06
 Reference value :  6.04462e-06
 Reference value :  6.05588e-06
 Reference value :  6.08949e-06
 Reference value :  6.24305e-06
 Reference value :  6.25013e-06
 Reference value :  6.25021e-06
 Reference value :  6.25044e-06
 Reference value :  6.25138e-06
 Reference value :  6.25235e-06
 Reference value :  6.25440e-06
 Reference value :  6.25675e-06
 Reference value :  6.26184e-06
 Reference value :  6.28466e-06
 Reference value :  6.50000e-06
 Reference value :  6.50007e-06
 Reference value :  6.50012e-06
 Reference value :  6.50034e-06
 Reference value :  6.50129e-06
 Reference value :  6.50218e-06
 Reference value :  6.50332e-06
 Reference value :  6.50473e-06
 Reference value :  6.50657e-06
 Reference value :  6.50734e-06
 Reference value :  6.50903e-06
 Reference value :  6.51241e-06
 Reference value :  6.52890e-06
 Reference value :  6.65976e-06
 Reference value :  6.75013e-06
 Reference value :  6.75021e-06
 Reference value :  6.75032e-06
 Reference value :  6.75094e-06
 Reference value :  6.75138e-06
 Reference value :  6.75302e-06
 Reference value :  6.75439e-06
 Reference value :  6.75670e-06
 Reference value :  6.75842e-06
 Reference value :  6.76214e-06
 Reference value :  6.78731e-06
 Reference value :  7.00000e-06
 Reference value :  7.00007e-06
 Reference value :  7.00016e-06
 Reference value :  7.00050e-06
 Reference value :  7.00128e-06
 Reference value :  7.00219e-06
 Reference value :  7.00329e-06
 Reference value :  7.00441e-06
 Reference value :  7.00556e-06
 Reference value :  7.00670e-06
 Reference value :  7.01073e-06
 Reference value :  7.01369e-06
 Reference value :  7.01757e-06
 Reference value :  7.02372e-06
 Reference value :  7.04086e-06
 Reference value :  7.15863e-06
 Reference value :  7.25013e-06
 Reference value :  7.25026e-06
 Reference value :  7.25094e-06
 Reference value :  7.25235e-06
 Reference value :  7.25436e-06
 Reference value :  7.25757e-06
 Reference value :  7.30419e-06
 Reference value :  7.50007e-06
 Reference value :  7.50034e-06
 Reference value :  7.50176e-06
 Reference value :  7.50332e-06
 Reference value :  7.50473e-06
 Reference value :  7.50734e-06
 Reference value :  7.50903e-06
 Reference value :  7.51241e-06
 Reference value :  7.54764e-06
 Reference value :  7.75011e-06
 Reference value :  7.75022e-06
 Reference value :  7.75068e-06
 Reference value :  7.75138e-06
 Reference value :  7.75376e-06
 Reference value :  7.75669e-06
 Reference value :  7.75933e-06
 Reference value :  7.76483e-06
 Reference value :  7.78710e-06
 Reference value :  8.00000e-06
 Reference value :  8.00010e-06
 Reference value :  8.00016e-06
 Reference value :  8.00050e-06
 Reference value :  8.00176e-06
 Reference value :  8.00329e-06
 Reference value :  8.00499e-06
 Reference value :  8.00609e-06
 Reference value :  8.00843e-06
 Reference value :  8.01189e-06
 Reference value :  8.01790e-06
 Reference value :  8.03657e-06
 Reference value :  8.04441e-06
 Reference value :  8.07521e-06
 Reference value :  8.17135e-06
 Reference value :  8.25013e-06
 Reference value :  8.25022e-06
 Reference value :  8.25070e-06
 Reference value :  8.25139e-06
 Reference value :  8.25303e-06
 Reference value :  8.25387e-06
 Reference value :  8.25565e-06
 Reference value :  8.25789e-06
 Reference value :  8.26176e-06
 Reference value :  8.28058e-06
 Reference value :  8.32552e-06
 Reference value :  8.50000e-06
 Reference value :  8.50007e-06
 Reference value :  8.50012e-06
 Reference value :  8.50022e-06
 Reference value :  8.50060e-06
 Reference value :  8.50154e-06
 Reference value :  8.50262e-06
 Reference value :  8.50453e-06
 Reference value :  8.50600e-06
 Reference value :  8.50885e-06
 Reference value :  8.52426e-06
 Reference value :  8.52837e-06
 Reference value :  8.53140e-06
 Reference value :  8.53416e-06
 Reference value :  8.53639e-06
 Reference value :  8.53800e-06
 Reference value :  8.54086e-06
 Reference value :  8.54231e-06
 Reference value :  8.55031e-06
 Reference value :  8.56349e-06
 Reference value :  8.60857e-06
 Reference value :  8.73221e-06
 Reference value :  8.75013e-06
 Reference value :  8.75021e-06
 Reference value :  8.75032e-06
 Reference value :  8.75095e-06
 Reference value :  8.75138e-06
 Reference value :  8.75236e-06
 Reference value :  8.75377e-06
 Reference value :  8.75506e-06
 Reference value :  8.75769e-06
 Reference value :  8.77263e-06
 Reference value :  8.90447e-06
 Reference value :  9.00007e-06
 Reference value :  9.00016e-06
 Reference value :  9.00050e-06
 Reference value :  9.00128e-06
 Reference value :  9.00219e-06
 Reference value :  9.00323e-06
 Reference value :  9.00442e-06
 Reference value :  9.00617e-06
 Reference value :  9.00888e-06
 Reference value :  9.01136e-06
 Reference value :  9.01426e-06
 Reference value :  9.01725e-06
 Reference value :  9.02543e-06
 Reference value :  9.09034e-06
 Reference value :  9.25013e-06
 Reference value :  9.25026e-06
 Reference value :  9.25094e-06
 Reference value :  9.25235e-06
 Reference value :  9.25376e-06
 Reference value :  9.25506e-06
 Reference value :  9.25759e-06
 Reference value :  9.27255e-06
 Reference value :  9.33960e-06
 Reference value :  9.50001e-06
 Reference value :  9.50010e-06
 Reference value :  9.50016e-06
 Reference value :  9.50050e-06
 Reference value :  9.50128e-06
 Reference value :  9.50219e-06
 Reference value :  9.50329e-06
 Reference value :  9.50441e-06
 Reference value :  9.50557e-06
 Reference value :  9.50609e-06
 Reference value :  9.50843e-06
 Reference value :  9.51142e-06
 Reference value :  9.51387e-06
 Reference value :  9.51707e-06
 Reference value :  9.52274e-06
 Reference value :  9.64647e-06
 Reference value :  9.75013e-06
 Reference value :  9.75022e-06
 Reference value :  9.75068e-06
 Reference value :  9.75138e-06
 Reference value :  9.75302e-06
 Reference value :  9.75440e-06
 Reference value :  9.75670e-06
 Reference value :  9.77262e-06
 Reference value :  1.00000e-05
 Reference value :  1.00001e-05
 Reference value :  1.00003e-05
 Reference value :  1.00013e-05
 Reference value :  1.00022e-05
 Reference value :  1.00032e-05
 Reference value :  1.00044e-05
 Reference value :  1.00072e-05
 Reference value :  1.00093e-05
 Reference value :  1.00116e-05
 Reference value :  1.00286e-05
 Reference value :  1.02501e-05
 Reference value :  1.02502e-05
 Reference value :  1.02504e-05
 Reference value :  1.02514e-05
 Reference value :  1.02538e-05
 Reference value :  1.02558e-05
 Reference value :  1.02614e-05
 Reference value :  1.03049e-05
 Reference value :  1.05000e-05
 Reference value :  1.05001e-05
 Reference value :  1.05002e-05
 Reference value :  1.05013e-05
 Reference value :  1.05027e-05
 Reference value :  1.05044e-05
 Reference value :  1.05056e-05
 Reference value :  1.05067e-05
 Reference value :  1.05114e-05
 Reference value :  1.05139e-05
 Reference value :  1.05171e-05
 Reference value :  1.05211e-05
 Reference value :  1.05305e-05
 Reference value :  1.05487e-05
 Reference value :  1.05586e-05
 Reference value :  1.05694e-05
 Reference value :  1.05930e-05
 Reference value :  1.07156e-05
 Reference value :  1.07501e-05
 Reference value :  1.07502e-05
 Reference value :  1.07503e-05
 Reference value :  1.07507e-05
 Reference value :  1.07514e-05
 Reference value :  1.07530e-05
 Reference value :  1.07544e-05
 Reference value :  1.07567e-05
 Reference value :  1.07659e-05
 Reference value :  1.08384e-05
 Reference value :  1.10000e-05
 Reference value :  1.10001e-05
 Reference value :  1.10002e-05
 Reference value :  1.10005e-05
 Reference value :  1.10013e-05
 Reference value :  1.10022e-05
 Reference value :  1.10040e-05
 Reference value :  1.10055e-05
 Reference value :  1.10073e-05
 Reference value :  1.10090e-05
 Reference value :  1.10124e-05
 Reference value :  1.10475e-05
 Reference value :  1.12501e-05
 Reference value :  1.12502e-05
 Reference value :  1.12504e-05
 Reference value :  1.12514e-05
 Reference value :  1.12530e-05
 Reference value :  1.12544e-05
 Reference value :  1.12567e-05
 Reference value :  1.12584e-05
 Reference value :  1.12621e-05
 Reference value :  1.12875e-05
 Reference value :  1.15000e-05
 Reference value :  1.15001e-05
 Reference value :  1.15002e-05
 Reference value :  1.15005e-05
 Reference value :  1.15013e-05
 Reference value :  1.15022e-05
 Reference value :  1.15033e-05
 Reference value :  1.15044e-05
 Reference value :  1.15056e-05
 Reference value :  1.15076e-05
 Reference value :  1.15107e-05
 Reference value :  1.15128e-05
 Reference value :  1.15145e-05
 Reference value :  1.15165e-05
 Reference value :  1.15185e-05
 Reference value :  1.15231e-05
 Reference value :  1.15387e-05
 Reference value :  1.15447e-05
 Reference value :  1.15497e-05
 Reference value :  1.15539e-05
 Reference value :  1.15633e-05
 Reference value :  1.16024e-05
 Reference value :  1.17022e-05
 Reference value :  1.17501e-05
 Reference value :  1.17502e-05
 Reference value :  1.17504e-05
 Reference value :  1.17514e-05
 Reference value :  1.17524e-05
 Reference value :  1.17538e-05
 Reference value :  1.17550e-05
 Reference value :  1.17567e-05
 Reference value :  1.17614e-05
 Reference value :  1.18049e-05
 Reference value :  1.20000e-05
 Reference value :  1.20001e-05
 Reference value :  1.20002e-05
 Reference value :  1.20005e-05
 Reference value :  1.20013e-05
 Reference value :  1.20022e-05
 Reference value :  1.20032e-05
 Reference value :  1.20044e-05
 Reference value :  1.20062e-05
 Reference value :  1.20082e-05
 Reference value :  1.20104e-05
 Reference value :  1.20129e-05
 Reference value :  1.20448e-05
 Reference value :  1.22501e-05
 Reference value :  1.22502e-05
 Reference value :  1.22502e-05
 Reference value :  1.22504e-05
 Reference value :  1.22514e-05
 Reference value :  1.22530e-05
 Reference value :  1.22544e-05
 Reference value :  1.22567e-05
 Reference value :  1.22614e-05
 Reference value :  1.22839e-05
 Reference value :  1.24052e-05
 Reference value :  1.25000e-05
 Reference value :  1.25001e-05
 Reference value :  1.25001e-05
 Reference value :  1.25003e-05
 Reference value :  1.25008e-05
 Reference value :  1.25018e-05
 Reference value :  1.25027e-05
 Reference value :  1.25039e-05
 Reference value :  1.25050e-05
 Reference value :  1.25056e-05
 Reference value :  1.25067e-05
 Reference value :  1.25100e-05
 Reference value :  1.25128e-05
 Reference value :  1.25149e-05
 Reference value :  1.25171e-05
 Reference value :  1.25211e-05
 Reference value :  1.25316e-05
 Reference value :  1.25402e-05
 Reference value :  1.25481e-05
 Reference value :  1.25571e-05
 Reference value :  1.25889e-05
 Reference value :  1.27001e-05
 Reference value :  1.27501e-05
 Reference value :  1.27502e-05
 Reference value :  1.27503e-05
 Reference value :  1.27504e-05
 Reference value :  1.27509e-05
 Reference value :  1.27514e-05
 Reference value :  1.27524e-05
 Reference value :  1.27537e-05
 Reference value :  1.27551e-05
 Reference value :  1.27579e-05
 Reference value :  1.27660e-05
 Reference value :  1.28385e-05
 Reference value :  1.30000e-05
 Reference value :  1.30001e-05
 Reference value :  1.30005e-05
 Reference value :  1.30013e-05
 Reference value :  1.30022e-05
 Reference value :  1.30039e-05
 Reference value :  1.30055e-05
 Reference value :  1.30073e-05
 Reference value :  1.30090e-05
 Reference value :  1.30124e-05
 Reference value :  1.30476e-05
 Reference value :  1.32501e-05
 Reference value :  1.32502e-05
 Reference value :  1.32507e-05
 Reference value :  1.32514e-05
 Reference value :  1.32530e-05
 Reference value :  1.32544e-05
 Reference value :  1.32567e-05
 Reference value :  1.32584e-05
 Reference value :  1.32621e-05
 Reference value :  1.32752e-05
 Reference value :  1.34253e-05
 Reference value :  1.35000e-05
 Reference value :  1.35001e-05
 Reference value :  1.35002e-05
 Reference value :  1.35008e-05
 Reference value :  1.35018e-05
 Reference value :  1.35027e-05
 Reference value :  1.35039e-05
 Reference value :  1.35050e-05
 Reference value :  1.35061e-05
 Reference value :  1.35084e-05
 Reference value :  1.35107e-05
 Reference value :  1.35129e-05
 Reference value :  1.35145e-05
 Reference value :  1.35165e-05
 Reference value :  1.35200e-05
 Reference value :  1.35262e-05
 Reference value :  1.35303e-05
 Reference value :  1.35335e-05
 Reference value :  1.35426e-05
 Reference value :  1.35731e-05
 Reference value :  1.36430e-05
 Reference value :  1.37501e-05
 Reference value :  1.37501e-05
 Reference value :  1.37502e-05
 Reference value :  1.37502e-05
 Reference value :  1.37503e-05
 Reference value :  1.37507e-05
 Reference value :  1.37514e-05
 Reference value :  1.37524e-05
 Reference value :  1.37537e-05
 Reference value :  1.37551e-05
 Reference value :  1.37568e-05
 Reference value :  1.37619e-05
 Reference value :  1.37744e-05
 Reference value :  1.38317e-05
 Reference value :  1.38845e-05
 Reference value :  1.40000e-05
 Reference value :  1.40001e-05
 Reference value :  1.40001e-05
 Reference value :  1.40002e-05
 Reference value :  1.40008e-05
 Reference value :  1.40013e-05
 Reference value :  1.40022e-05
 Reference value :  1.40033e-05
 Reference value :  1.40047e-05
 Reference value :  1.40073e-05
 Reference value :  1.40090e-05
 Reference value :  1.40112e-05
 Reference value :  1.40195e-05
 Reference value :  1.40852e-05
 Reference value :  1.42501e-05
 Reference value :  1.42502e-05
 Reference value :  1.42502e-05
 Reference value :  1.42503e-05
 Reference value :  1.42507e-05
 Reference value :  1.42514e-05
 Reference value :  1.42524e-05
 Reference value :  1.42538e-05
 Reference value :  1.42544e-05
 Reference value :  1.42558e-05
 Reference value :  1.42576e-05
 Reference value :  1.42593e-05
 Reference value :  1.42621e-05
 Reference value :  1.42752e-05
 Reference value :  1.43475e-05
 Reference value :  1.45000e-05
 Reference value :  1.45001e-05
 Reference value :  1.45001e-05
 Reference value :  1.45003e-05
 Reference value :  1.45013e-05
 Reference value :  1.45022e-05
 Reference value :  1.45033e-05
 Reference value :  1.45044e-05
 Reference value :  1.45056e-05
 Reference value :  1.45067e-05
 Reference value :  1.45097e-05
 Reference value :  1.45117e-05
 Reference value :  1.45137e-05
 Reference value :  1.45165e-05
 Reference value :  1.45200e-05
 Reference value :  1.45209e-05
 Reference value :  1.45240e-05
 Reference value :  1.45357e-05
 Reference value :  1.45785e-05
 Reference value :  1.47502e-05
 Reference value :  1.47503e-05
 Reference value :  1.47514e-05
 Reference value :  1.47530e-05
 Reference value :  1.47544e-05
 Reference value :  1.47567e-05
 Reference value :  1.47614e-05
 Reference value :  1.48049e-05
 Reference value :  1.50000e-05
 Reference value :  1.50001e-05
 Reference value :  1.50002e-05
 Reference value :  1.50008e-05
 Reference value :  1.50018e-05
 Reference value :  1.50022e-05
 Reference value :  1.50032e-05
 Reference value :  1.50044e-05
 Reference value :  1.50062e-05
 Reference value :  1.50082e-05
 Reference value :  1.50116e-05
 Reference value :  1.50448e-05
 Reference value :  1.52501e-05
 Reference value :  1.52502e-05
 Reference value :  1.52507e-05
 Reference value :  1.52514e-05
 Reference value :  1.52530e-05
 Reference value :  1.52551e-05
 Reference value :  1.52576e-05
 Reference value :  1.52725e-05
 Reference value :  1.55000e-05
 Reference value :  1.55015e-05
 Reference value :  1.55045e-05
 Reference value :  1.55061e-05
 Reference value :  1.55106e-05
 Reference value :  1.55135e-05
 Reference value :  1.55155e-05
 Reference value :  1.55180e-05
 Reference value :  1.55228e-05
 Reference value :  1.55316e-05
 Reference value :  1.55356e-05
 Reference value :  1.55422e-05
 Reference value :  1.55493e-05
 Reference value :  1.55925e-05
 Reference value :  1.57501e-05
 Reference value :  1.57502e-05
 Reference value :  1.57502e-05
 Reference value :  1.57504e-05
 Reference value :  1.57514e-05
 Reference value :  1.57524e-05
 Reference value :  1.57537e-05
 Reference value :  1.57551e-05
 Reference value :  1.57567e-05
 Reference value :  1.57618e-05
 Reference value :  1.58045e-05
 Reference value :  1.60000e-05
 Reference value :  1.60001e-05
 Reference value :  1.60002e-05
 Reference value :  1.60005e-05
 Reference value :  1.60013e-05
 Reference value :  1.60026e-05
 Reference value :  1.60047e-05
 Reference value :  1.60074e-05
 Reference value :  1.60100e-05
 Reference value :  1.60196e-05
 Reference value :  1.62501e-05
 Reference value :  1.62502e-05
 Reference value :  1.62503e-05
 Reference value :  1.62507e-05
 Reference value :  1.62514e-05
 Reference value :  1.62524e-05
 Reference value :  1.62538e-05
 Reference value :  1.62544e-05
 Reference value :  1.62558e-05
 Reference value :  1.62576e-05
 Reference value :  1.62593e-05
 Reference value :  1.62648e-05
 Reference value :  1.62871e-05
 Reference value :  1.65000e-05
 Reference value :  1.65000e-05
 Reference value :  1.65001e-05
 Reference value :  1.65001e-05
 Reference value :  1.65002e-05
 Reference value :  1.65008e-05
 Reference value :  1.65018e-05
 Reference value :  1.65022e-05
 Reference value :  1.65033e-05
 Reference value :  1.65044e-05
 Reference value :  1.65056e-05
 Reference value :  1.65067e-05
 Reference value :  1.65093e-05
 Reference value :  1.65120e-05
 Reference value :  1.65163e-05
 Reference value :  1.65201e-05
 Reference value :  1.65258e-05
 Reference value :  1.65599e-05
 Reference value :  1.67501e-05
 Reference value :  1.67502e-05
 Reference value :  1.67502e-05
 Reference value :  1.67507e-05
 Reference value :  1.67514e-05
 Reference value :  1.67530e-05
 Reference value :  1.67547e-05
 Reference value :  1.67579e-05
 Reference value :  1.67712e-05
 Reference value :  1.68836e-05
 Reference value :  1.70001e-05
 Reference value :  1.70001e-05
 Reference value :  1.70004e-05
 Reference value :  1.70016e-05
 Reference value :  1.70033e-05
 Reference value :  1.70040e-05
 Reference value :  1.70054e-05
 Reference value :  1.70068e-05
 Reference value :  1.70209e-05
 Reference value :  1.70270e-05
 Reference value :  1.70315e-05
 Reference value :  1.70389e-05
 Reference value :  1.70447e-05
 Reference value :  1.70612e-05
 Reference value :  1.71489e-05
 Reference value :  1.72501e-05
 Reference value :  1.72502e-05
 Reference value :  1.72507e-05
 Reference value :  1.72518e-05
 Reference value :  1.72538e-05
 Reference value :  1.72550e-05
 Reference value :  1.72576e-05
 Reference value :  1.72654e-05
 Reference value :  1.73045e-05
 Reference value :  1.75000e-05
 Reference value :  1.75001e-05
 Reference value :  1.75001e-05
 Reference value :  1.75003e-05
 Reference value :  1.75013e-05
 Reference value :  1.75022e-05
 Reference value :  1.75032e-05
 Reference value :  1.75044e-05
 Reference value :  1.75072e-05
 Reference value :  1.75101e-05
 Reference value :  1.75127e-05
 Reference value :  1.75156e-05
 Reference value :  1.75191e-05
 Reference value :  1.75399e-05
 Reference value :  1.77501e-05
 Reference value :  1.77502e-05
 Reference value :  1.77502e-05
 Reference value :  1.77504e-05
 Reference value :  1.77509e-05
 Reference value :  1.77518e-05
 Reference value :  1.77530e-05
 Reference value :  1.77544e-05
 Reference value :  1.77567e-05
 Reference value :  1.77614e-05
 Reference value :  1.77839e-05
 Reference value :  1.79047e-05
 Reference value :  1.80017e-05
 Reference value :  1.80068e-05
 Reference value :  1.80106e-05
 Reference value :  1.80122e-05
 Reference value :  1.80153e-05
 Reference value :  1.80180e-05
 Reference value :  1.80231e-05
 Reference value :  1.80489e-05
 Reference value :  1.82501e-05
 Reference value :  1.82502e-05
 Reference value :  1.82502e-05
 Reference value :  1.82504e-05
 Reference value :  1.82514e-05
 Reference value :  1.82524e-05
 Reference value :  1.82543e-05
 Reference value :  1.82565e-05
 Reference value :  1.82612e-05
 Reference value :  1.83989e-05
 Reference value :  1.85001e-05
 Reference value :  1.85003e-05
 Reference value :  1.85013e-05
 Reference value :  1.85022e-05
 Reference value :  1.85032e-05
 Reference value :  1.85044e-05
 Reference value :  1.85072e-05
 Reference value :  1.85103e-05
 Reference value :  1.85289e-05
 Reference value :  1.87501e-05
 Reference value :  1.87502e-05
 Reference value :  1.87504e-05
 Reference value :  1.87514e-05
 Reference value :  1.87530e-05
 Reference value :  1.87544e-05
 Reference value :  1.87567e-05
 Reference value :  1.87655e-05
 Reference value :  1.89051e-05
 Reference value :  1.90000e-05
 Reference value :  1.90001e-05
 Reference value :  1.90002e-05
 Reference value :  1.90008e-05
 Reference value :  1.90018e-05
 Reference value :  1.90027e-05
 Reference value :  1.90033e-05
 Reference value :  1.90044e-05
 Reference value :  1.90056e-05
 Reference value :  1.90061e-05
 Reference value :  1.90076e-05
 Reference value :  1.90100e-05
 Reference value :  1.90114e-05
 Reference value :  1.90128e-05
 Reference value :  1.90139e-05
 Reference value :  1.90160e-05
 Reference value :  1.90171e-05
 Reference value :  1.90194e-05
 Reference value :  1.90262e-05
 Reference value :  1.90410e-05
 Reference value :  1.90470e-05
 Reference value :  1.90512e-05
 Reference value :  1.90551e-05
 Reference value :  1.90643e-05
 Reference value :  1.90823e-05
 Reference value :  1.91346e-05
 Reference value :  1.92501e-05
 Reference value :  1.92501e-05
 Reference value :  1.92502e-05
 Reference value :  1.92503e-05
 Reference value :  1.92504e-05
 Reference value :  1.92509e-05
 Reference value :  1.92514e-05
 Reference value :  1.92524e-05
 Reference value :  1.92537e-05
 Reference value :  1.92551e-05
 Reference value :  1.92567e-05
 Reference value :  1.92594e-05
 Reference value :  1.92729e-05
 Reference value :  1.93385e-05
 Reference value :  1.95018e-05
 Reference value :  1.95055e-05
 Reference value :  1.95074e-05
 Reference value :  1.95107e-05
 Reference value :  1.95143e-05
 Reference value :  1.95309e-05
 Reference value :  1.96510e-05
 Reference value :  1.97501e-05
 Reference value :  1.97502e-05
 Reference value :  1.97504e-05
 Reference value :  1.97514e-05
 Reference value :  1.97524e-05
 Reference value :  1.97542e-05
 Reference value :  1.97562e-05
 Reference value :  1.97580e-05
 Reference value :  1.97619e-05
 Reference value :  1.97732e-05
 Reference value :  1.98271e-05
 Reference value :  2.00000e-05
 Reference value :  2.00001e-05
 Reference value :  2.00002e-05
 Reference value :  2.00005e-05
 Reference value :  2.00013e-05
 Reference value :  2.00022e-05
 Reference value :  2.00039e-05
 Reference value :  2.00050e-05
 Reference value :  2.00061e-05
 Reference value :  2.00084e-05
 Reference value :  2.00107e-05
 Reference value :  2.00137e-05
 Reference value :  2.00164e-05
 Reference value :  2.00211e-05
 Reference value :  2.00297e-05
 Reference value :  2.00424e-05
 Reference value :  2.00525e-05
 Reference value :  2.00593e-05
 Reference value :  2.00675e-05
 Reference value :  2.00831e-05
 Reference value :  2.01393e-05
 Reference value :  2.02501e-05
 Reference value :  2.02502e-05
 Reference value :  2.02507e-05
 Reference value :  2.02524e-05
 Reference value :  2.02544e-05
 Reference value :  2.02576e-05
 Reference value :  2.02725e-05
 Reference value :  2.04068e-05
 Reference value :  2.05018e-05
 Reference value :  2.05053e-05
 Reference value :  2.05071e-05
 Reference value :  2.05118e-05
 Reference value :  2.05280e-05
 Reference value :  2.07089e-05
 Reference value :  2.07502e-05
 Reference value :  2.07504e-05
 Reference value :  2.07514e-05
 Reference value :  2.07530e-05
 Reference value :  2.07542e-05
 Reference value :  2.07563e-05
 Reference value :  2.07637e-05
 Reference value :  2.08865e-05
 Reference value :  2.10000e-05
 Reference value :  2.10001e-05
 Reference value :  2.10005e-05
 Reference value :  2.10018e-05
 Reference value :  2.10027e-05
 Reference value :  2.10044e-05
 Reference value :  2.10056e-05
 Reference value :  2.10067e-05
 Reference value :  2.10100e-05
 Reference value :  2.10128e-05
 Reference value :  2.10149e-05
 Reference value :  2.10171e-05
 Reference value :  2.10194e-05
 Reference value :  2.10261e-05
 Reference value :  2.10350e-05
 Reference value :  2.10412e-05
 Reference value :  2.10536e-05
 Reference value :  2.10711e-05
 Reference value :  2.11193e-05
 Reference value :  2.12501e-05
 Reference value :  2.12502e-05
 Reference value :  2.12502e-05
 Reference value :  2.12504e-05
 Reference value :  2.12514e-05
 Reference value :  2.12530e-05
 Reference value :  2.12544e-05
 Reference value :  2.12567e-05
 Reference value :  2.12660e-05
 Reference value :  2.13384e-05
 Reference value :  2.15000e-05
 Reference value :  2.15001e-05
 Reference value :  2.15002e-05
 Reference value :  2.15005e-05
 Reference value :  2.15013e-05
 Reference value :  2.15022e-05
 Reference value :  2.15033e-05
 Reference value :  2.15047e-05
 Reference value :  2.15066e-05
 Reference value :  2.15073e-05
 Reference value :  2.15090e-05
 Reference value :  2.15112e-05
 Reference value :  2.15196e-05
 Reference value :  2.15850e-05
 Reference value :  2.17501e-05
 Reference value :  2.17502e-05
 Reference value :  2.17503e-05
 Reference value :  2.17507e-05
 Reference value :  2.17514e-05
 Reference value :  2.17524e-05
 Reference value :  2.17538e-05
 Reference value :  2.17544e-05
 Reference value :  2.17558e-05
 Reference value :  2.17576e-05
 Reference value :  2.17584e-05
 Reference value :  2.17607e-05
 Reference value :  2.17648e-05
 Reference value :  2.17752e-05
 Reference value :  2.18485e-05
 Reference value :  2.20012e-05
 Reference value :  2.20050e-05
 Reference value :  2.20072e-05
 Reference value :  2.20102e-05
 Reference value :  2.20122e-05
 Reference value :  2.20149e-05
 Reference value :  2.20178e-05
 Reference value :  2.20217e-05
 Reference value :  2.20318e-05
 Reference value :  2.20375e-05
 Reference value :  2.20715e-05
 Reference value :  2.21799e-05
 Reference value :  2.22078e-05
 Reference value :  2.22501e-05
 Reference value :  2.22502e-05
 Reference value :  2.22502e-05
 Reference value :  2.22504e-05
 Reference value :  2.22509e-05
 Reference value :  2.22514e-05
 Reference value :  2.22524e-05
 Reference value :  2.22537e-05
 Reference value :  2.22551e-05
 Reference value :  2.22567e-05
 Reference value :  2.22593e-05
 Reference value :  2.22726e-05
 Reference value :  2.23036e-05
 Reference value :  2.24817e-05
 Reference value :  2.25000e-05
 Reference value :  2.25001e-05
 Reference value :  2.25001e-05
 Reference value :  2.25002e-05
 Reference value :  2.25003e-05
 Reference value :  2.25008e-05
 Reference value :  2.25013e-05
 Reference value :  2.25022e-05
 Reference value :  2.25033e-05
 Reference value :  2.25039e-05
 Reference value :  2.25055e-05
 Reference value :  2.25073e-05
 Reference value :  2.25090e-05
 Reference value :  2.25112e-05
 Reference value :  2.25196e-05
 Reference value :  2.26586e-05
 Reference value :  2.27501e-05
 Reference value :  2.27502e-05
 Reference value :  2.27503e-05
 Reference value :  2.27509e-05
 Reference value :  2.27518e-05
 Reference value :  2.27538e-05
 Reference value :  2.27550e-05
 Reference value :  2.27567e-05
 Reference value :  2.27593e-05
 Reference value :  2.27683e-05
 Reference value :  2.28480e-05
 Reference value :  2.30013e-05
 Reference value :  2.30051e-05
 Reference value :  2.30073e-05
 Reference value :  2.30094e-05
 Reference value :  2.30103e-05
 Reference value :  2.30122e-05
 Reference value :  2.30140e-05
 Reference value :  2.30156e-05
 Reference value :  2.30174e-05
 Reference value :  2.30194e-05
 Reference value :  2.30242e-05
 Reference value :  2.30267e-05
 Reference value :  2.30283e-05
 Reference value :  2.30322e-05
 Reference value :  2.30411e-05
 Reference value :  2.30685e-05
 Reference value :  2.31816e-05
 Reference value :  2.32501e-05
 Reference value :  2.32502e-05
 Reference value :  2.32503e-05
 Reference value :  2.32509e-05
 Reference value :  2.32518e-05
 Reference value :  2.32530e-05
 Reference value :  2.32544e-05
 Reference value :  2.32557e-05
 Reference value :  2.32575e-05
 Reference value :  2.32653e-05
 Reference value :  2.33040e-05
 Reference value :  2.35000e-05
 Reference value :  2.35001e-05
 Reference value :  2.35001e-05
 Reference value :  2.35002e-05
 Reference value :  2.35005e-05
 Reference value :  2.35013e-05
 Reference value :  2.35022e-05
 Reference value :  2.35032e-05
 Reference value :  2.35044e-05
 Reference value :  2.35062e-05
 Reference value :  2.35082e-05
 Reference value :  2.35104e-05
 Reference value :  2.35129e-05
 Reference value :  2.35289e-05
 Reference value :  2.36460e-05
 Reference value :  2.37501e-05
 Reference value :  2.37502e-05
 Reference value :  2.37502e-05
 Reference value :  2.37503e-05
 Reference value :  2.37504e-05
 Reference value :  2.37509e-05
 Reference value :  2.37514e-05
 Reference value :  2.37524e-05
 Reference value :  2.37538e-05
 Reference value :  2.37544e-05
 Reference value :  2.37558e-05
 Reference value :  2.37576e-05
 Reference value :  2.37614e-05
 Reference value :  2.37725e-05
 Reference value :  2.38393e-05
 Reference value :  2.40000e-05
 Reference value :  2.40000e-05
 Reference value :  2.40001e-05
 Reference value :  2.40001e-05
 Reference value :  2.40002e-05
 Reference value :  2.40005e-05
 Reference value :  2.40013e-05
 Reference value :  2.40022e-05
 Reference value :  2.40033e-05
 Reference value :  2.40044e-05
 Reference value :  2.40056e-05
 Reference value :  2.40067e-05
 Reference value :  2.40099e-05
 Reference value :  2.40127e-05
 Reference value :  2.40149e-05
 Reference value :  2.40170e-05
 Reference value :  2.40211e-05
 Reference value :  2.40244e-05
 Reference value :  2.40286e-05
 Reference value :  2.40552e-05
 Reference value :  2.42501e-05
 Reference value :  2.42502e-05
 Reference value :  2.42504e-05
 Reference value :  2.42514e-05
 Reference value :  2.42530e-05
 Reference value :  2.42544e-05
 Reference value :  2.42567e-05
 Reference value :  2.42729e-05
 Reference value :  2.45000e-05
 Reference value :  2.45001e-05
 Reference value :  2.45005e-05
 Reference value :  2.45013e-05
 Reference value :  2.45026e-05
 Reference value :  2.45039e-05
 Reference value :  2.45055e-05
 Reference value :  2.45074e-05
 Reference value :  2.45090e-05
 Reference value :  2.45112e-05
 Reference value :  2.45196e-05
 Reference value :  2.45842e-05
 Reference value :  2.47501e-05
 Reference value :  2.47502e-05
 Reference value :  2.47502e-05
 Reference value :  2.47504e-05
 Reference value :  2.47509e-05
 Reference value :  2.47514e-05
 Reference value :  2.47530e-05
 Reference value :  2.47544e-05
 Reference value :  2.47558e-05
 Reference value :  2.47576e-05
 Reference value :  2.47584e-05
 Reference value :  2.47621e-05
 Reference value :  2.47752e-05
 Reference value :  2.48474e-05
 Reference value :  2.50000e-05
 Reference value :  2.50001e-05
 Reference value :  2.50001e-05
 Reference value :  2.50002e-05
 Reference value :  2.50008e-05
 Reference value :  2.50018e-05
 Reference value :  2.50027e-05
 Reference value :  2.50039e-05
 Reference value :  2.50044e-05
 Reference value :  2.50056e-05
 Reference value :  2.50061e-05
 Reference value :  2.50076e-05
 Reference value :  2.50100e-05
 Reference value :  2.50131e-05
 Reference value :  2.50177e-05
 Reference value :  2.50250e-05
 Reference value :  2.50387e-05
 Reference value :  2.50489e-05
 Reference value :  2.50603e-05
 Reference value :  2.50883e-05
 Reference value :  2.51451e-05
 Reference value :  2.52369e-05
 Reference value :  2.52501e-05
 Reference value :  2.52502e-05
 Reference value :  2.52503e-05
 Reference value :  2.52504e-05
 Reference value :  2.52510e-05
 Reference value :  2.52514e-05
 Reference value :  2.52524e-05
 Reference value :  2.52539e-05
 Reference value :  2.52566e-05
 Reference value :  2.52618e-05
 Reference value :  2.52712e-05
 Reference value :  2.52907e-05
 Reference value :  2.53131e-05
 Reference value :  2.53669e-05
 Reference value :  2.54898e-05
 Reference value :  2.55002e-05
 Reference value :  2.55008e-05
 Reference value :  2.55013e-05
 Reference value :  2.55022e-05
 Reference value :  2.55032e-05
 Reference value :  2.55047e-05
 Reference value :  2.55053e-05
 Reference value :  2.55068e-05
 Reference value :  2.55109e-05
 Reference value :  2.55206e-05
 Reference value :  2.55266e-05
 Reference value :  2.55310e-05
 Reference value :  2.55383e-05
 Reference value :  2.55450e-05
 Reference value :  2.55523e-05
 Reference value :  2.55683e-05
 Reference value :  2.56151e-05
 Reference value :  2.57501e-05
 Reference value :  2.57502e-05
 Reference value :  2.57503e-05
 Reference value :  2.57509e-05
 Reference value :  2.57524e-05
 Reference value :  2.57544e-05
 Reference value :  2.57576e-05
 Reference value :  2.57839e-05
 Reference value :  2.60000e-05
 Reference value :  2.60002e-05
 Reference value :  2.60013e-05
 Reference value :  2.60032e-05
 Reference value :  2.60051e-05
 Reference value :  2.60089e-05
 Reference value :  2.60127e-05
 Reference value :  2.60156e-05
 Reference value :  2.60323e-05
 Reference value :  2.62501e-05
 Reference value :  2.62503e-05
 Reference value :  2.62514e-05
 Reference value :  2.62530e-05
 Reference value :  2.62551e-05
 Reference value :  2.62576e-05
 Reference value :  2.62726e-05
 Reference value :  2.65000e-05
 Reference value :  2.65017e-05
 Reference value :  2.65068e-05
 Reference value :  2.65122e-05
 Reference value :  2.65153e-05
 Reference value :  2.65193e-05
 Reference value :  2.65301e-05
 Reference value :  2.66116e-05
 Reference value :  2.67501e-05
 Reference value :  2.67502e-05
 Reference value :  2.67502e-05
 Reference value :  2.67504e-05
 Reference value :  2.67509e-05
 Reference value :  2.67519e-05
 Reference value :  2.67530e-05
 Reference value :  2.67543e-05
 Reference value :  2.67565e-05
 Reference value :  2.67612e-05
 Reference value :  2.68033e-05
 Reference value :  2.70000e-05
 Reference value :  2.70001e-05
 Reference value :  2.70001e-05
 Reference value :  2.70002e-05
 Reference value :  2.70005e-05
 Reference value :  2.70013e-05
 Reference value :  2.70022e-05
 Reference value :  2.70032e-05
 Reference value :  2.70044e-05
 Reference value :  2.70062e-05
 Reference value :  2.70082e-05
 Reference value :  2.70103e-05
 Reference value :  2.70128e-05
 Reference value :  2.70289e-05
 Reference value :  2.71467e-05
 Reference value :  2.72501e-05
 Reference value :  2.72502e-05
 Reference value :  2.72503e-05
 Reference value :  2.72507e-05
 Reference value :  2.72514e-05
 Reference value :  2.72524e-05
 Reference value :  2.72538e-05
 Reference value :  2.72544e-05
 Reference value :  2.72558e-05
 Reference value :  2.72592e-05
 Reference value :  2.72725e-05
 Reference value :  2.73396e-05
 Reference value :  2.75000e-05
 Reference value :  2.75001e-05
 Reference value :  2.75002e-05
 Reference value :  2.75013e-05
 Reference value :  2.75022e-05
 Reference value :  2.75033e-05
 Reference value :  2.75044e-05
 Reference value :  2.75056e-05
 Reference value :  2.75061e-05
 Reference value :  2.75084e-05
 Reference value :  2.75128e-05
 Reference value :  2.75160e-05
 Reference value :  2.75182e-05
 Reference value :  2.75228e-05
 Reference value :  2.75359e-05
 Reference value :  2.75415e-05
 Reference value :  2.75514e-05
 Reference value :  2.75661e-05
 Reference value :  2.76930e-05
 Reference value :  2.77502e-05
 Reference value :  2.77504e-05
 Reference value :  2.77514e-05
 Reference value :  2.77530e-05
 Reference value :  2.77551e-05
 Reference value :  2.77579e-05
 Reference value :  2.77845e-05
 Reference value :  2.80018e-05
 Reference value :  2.80074e-05
 Reference value :  2.80107e-05
 Reference value :  2.80163e-05
 Reference value :  2.80422e-05
 Reference value :  2.82501e-05
 Reference value :  2.82502e-05
 Reference value :  2.82503e-05
 Reference value :  2.82514e-05
 Reference value :  2.82530e-05
 Reference value :  2.82542e-05
 Reference value :  2.82562e-05
 Reference value :  2.82580e-05
 Reference value :  2.82619e-05
 Reference value :  2.82995e-05
 Reference value :  2.85000e-05
 Reference value :  2.85001e-05
 Reference value :  2.85001e-05
 Reference value :  2.85003e-05
 Reference value :  2.85013e-05
 Reference value :  2.85022e-05
 Reference value :  2.85033e-05
 Reference value :  2.85050e-05
 Reference value :  2.85067e-05
 Reference value :  2.85107e-05
 Reference value :  2.85129e-05
 Reference value :  2.85145e-05
 Reference value :  2.85164e-05
 Reference value :  2.85185e-05
 Reference value :  2.85210e-05
 Reference value :  2.85357e-05
 Reference value :  2.85491e-05
 Reference value :  2.85539e-05
 Reference value :  2.85570e-05
 Reference value :  2.85590e-05
 Reference value :  2.85664e-05
 Reference value :  2.85793e-05
 Reference value :  2.86094e-05
 Reference value :  2.86993e-05
 Reference value :  2.87501e-05
 Reference value :  2.87502e-05
 Reference value :  2.87502e-05
 Reference value :  2.87503e-05
 Reference value :  2.87504e-05
 Reference value :  2.87509e-05
 Reference value :  2.87514e-05
 Reference value :  2.87524e-05
 Reference value :  2.87538e-05
 Reference value :  2.87544e-05
 Reference value :  2.87557e-05
 Reference value :  2.87576e-05
 Reference value :  2.87654e-05
 Reference value :  2.87839e-05
 Reference value :  2.89068e-05
 Reference value :  2.90018e-05
 Reference value :  2.90053e-05
 Reference value :  2.90071e-05
 Reference value :  2.90103e-05
 Reference value :  2.90133e-05
 Reference value :  2.90280e-05
 Reference value :  2.90834e-05
 Reference value :  2.92501e-05
 Reference value :  2.92502e-05
 Reference value :  2.92502e-05
 Reference value :  2.92504e-05
 Reference value :  2.92514e-05
 Reference value :  2.92524e-05
 Reference value :  2.92537e-05
 Reference value :  2.92548e-05
 Reference value :  2.92573e-05
 Reference value :  2.92637e-05
 Reference value :  2.93300e-05
 Reference value :  2.95000e-05
 Reference value :  2.95001e-05
 Reference value :  2.95002e-05
 Reference value :  2.95013e-05
 Reference value :  2.95027e-05
 Reference value :  2.95044e-05
 Reference value :  2.95056e-05
 Reference value :  2.95067e-05
 Reference value :  2.95100e-05
 Reference value :  2.95128e-05
 Reference value :  2.95149e-05
 Reference value :  2.95171e-05
 Reference value :  2.95261e-05
 Reference value :  2.95336e-05
 Reference value :  2.95390e-05
 Reference value :  2.95444e-05
 Reference value :  2.95576e-05
 Reference value :  2.95770e-05
 Reference value :  2.96355e-05
 Reference value :  2.97501e-05
 Reference value :  2.97501e-05
 Reference value :  2.97502e-05
 Reference value :  2.97503e-05
 Reference value :  2.97507e-05
 Reference value :  2.97514e-05
 Reference value :  2.97524e-05
 Reference value :  2.97537e-05
 Reference value :  2.97558e-05
 Reference value :  2.97594e-05
 Reference value :  2.97846e-05
 Reference value :  3.00000e-05
 Reference value :  3.00001e-05
 Reference value :  3.00001e-05
 Reference value :  3.00003e-05
 Reference value :  3.00013e-05
 Reference value :  3.00022e-05
 Reference value :  3.00033e-05
 Reference value :  3.00047e-05
 Reference value :  3.00066e-05
 Reference value :  3.00073e-05
 Reference value :  3.00090e-05
 Reference value :  3.00112e-05
 Reference value :  3.00196e-05
 Reference value :  3.00850e-05
 Reference value :  3.02501e-05
 Reference value :  3.02502e-05
 Reference value :  3.02502e-05
 Reference value :  3.02504e-05
 Reference value :  3.02514e-05
 Reference value :  3.02530e-05
 Reference value :  3.02544e-05
 Reference value :  3.02558e-05
 Reference value :  3.02576e-05
 Reference value :  3.02584e-05
 Reference value :  3.02607e-05
 Reference value :  3.02683e-05
 Reference value :  3.03485e-05
 Reference value :  3.05012e-05
 Reference value :  3.05050e-05
 Reference value :  3.05072e-05
 Reference value :  3.05093e-05
 Reference value :  3.05102e-05
 Reference value :  3.05122e-05
 Reference value :  3.05141e-05
 Reference value :  3.05158e-05
 Reference value :  3.05178e-05
 Reference value :  3.05216e-05
 Reference value :  3.05255e-05
 Reference value :  3.05309e-05
 Reference value :  3.05359e-05
 Reference value :  3.05397e-05
 Reference value :  3.05558e-05
 Reference value :  3.05793e-05
 Reference value :  3.06174e-05
 Reference value :  3.06332e-05
 Reference value :  3.06522e-05
 Reference value :  3.06869e-05
 Reference value :  3.07501e-05
 Reference value :  3.07502e-05
 Reference value :  3.07503e-05
 Reference value :  3.07507e-05
 Reference value :  3.07514e-05
 Reference value :  3.07524e-05
 Reference value :  3.07537e-05
 Reference value :  3.07558e-05
 Reference value :  3.07594e-05
 Reference value :  3.07727e-05
 Reference value :  3.08364e-05
 Reference value :  3.10000e-05
 Reference value :  3.10001e-05
 Reference value :  3.10002e-05
 Reference value :  3.10005e-05
 Reference value :  3.10013e-05
 Reference value :  3.10022e-05
 Reference value :  3.10033e-05
 Reference value :  3.10047e-05
 Reference value :  3.10066e-05
 Reference value :  3.10073e-05
 Reference value :  3.10090e-05
 Reference value :  3.10112e-05
 Reference value :  3.10196e-05
 Reference value :  3.10844e-05
 Reference value :  3.12501e-05
 Reference value :  3.12502e-05
 Reference value :  3.12503e-05
 Reference value :  3.12507e-05
 Reference value :  3.12514e-05
 Reference value :  3.12538e-05
 Reference value :  3.12550e-05
 Reference value :  3.12576e-05
 Reference value :  3.12607e-05
 Reference value :  3.12752e-05
 Reference value :  3.15000e-05
 Reference value :  3.15001e-05
 Reference value :  3.15002e-05
 Reference value :  3.15013e-05
 Reference value :  3.15027e-05
 Reference value :  3.15039e-05
 Reference value :  3.15050e-05
 Reference value :  3.15061e-05
 Reference value :  3.15097e-05
 Reference value :  3.15117e-05
 Reference value :  3.15137e-05
 Reference value :  3.15165e-05
 Reference value :  3.15197e-05
 Reference value :  3.15286e-05
 Reference value :  3.15397e-05
 Reference value :  3.15469e-05
 Reference value :  3.15785e-05
 Reference value :  3.16300e-05
 Reference value :  3.16563e-05
 Reference value :  3.16982e-05
 Reference value :  3.17352e-05
 Reference value :  3.17502e-05
 Reference value :  3.17502e-05
 Reference value :  3.17504e-05
 Reference value :  3.17514e-05
 Reference value :  3.17530e-05
 Reference value :  3.17544e-05
 Reference value :  3.17558e-05
 Reference value :  3.17594e-05
 Reference value :  3.17847e-05
 Reference value :  3.19017e-05
 Reference value :  3.20000e-05
 Reference value :  3.20001e-05
 Reference value :  3.20002e-05
 Reference value :  3.20005e-05
 Reference value :  3.20013e-05
 Reference value :  3.20022e-05
 Reference value :  3.20033e-05
 Reference value :  3.20047e-05
 Reference value :  3.20066e-05
 Reference value :  3.20074e-05
 Reference value :  3.20090e-05
 Reference value :  3.20112e-05
 Reference value :  3.20196e-05
 Reference value :  3.20833e-05
 Reference value :  3.22501e-05
 Reference value :  3.22502e-05
 Reference value :  3.22502e-05
 Reference value :  3.22504e-05
 Reference value :  3.22509e-05
 Reference value :  3.22514e-05
 Reference value :  3.22524e-05
 Reference value :  3.22538e-05
 Reference value :  3.22544e-05
 Reference value :  3.22567e-05
 Reference value :  3.22584e-05
 Reference value :  3.22621e-05
 Reference value :  3.22752e-05
 Reference value :  3.23473e-05
 Reference value :  3.25000e-05
 Reference value :  3.25001e-05
 Reference value :  3.25001e-05
 Reference value :  3.25003e-05
 Reference value :  3.25013e-05
 Reference value :  3.25022e-05
 Reference value :  3.25033e-05
 Reference value :  3.25044e-05
 Reference value :  3.25056e-05
 Reference value :  3.25067e-05
 Reference value :  3.25097e-05
 Reference value :  3.25107e-05
 Reference value :  3.25129e-05
 Reference value :  3.25137e-05
 Reference value :  3.25155e-05
 Reference value :  3.25176e-05
 Reference value :  3.25200e-05
 Reference value :  3.25239e-05
 Reference value :  3.25300e-05
 Reference value :  3.25425e-05
 Reference value :  3.25525e-05
 Reference value :  3.25719e-05
 Reference value :  3.26068e-05
 Reference value :  3.27195e-05
 Reference value :  3.27501e-05
 Reference value :  3.27502e-05
 Reference value :  3.27503e-05
 Reference value :  3.27507e-05
 Reference value :  3.27514e-05
 Reference value :  3.27524e-05
 Reference value :  3.27538e-05
 Reference value :  3.27550e-05
 Reference value :  3.27576e-05
 Reference value :  3.27654e-05
 Reference value :  3.27976e-05
 Reference value :  3.28536e-05
 Reference value :  3.28745e-05
 Reference value :  3.29247e-05
 Reference value :  3.30000e-05
 Reference value :  3.30000e-05
 Reference value :  3.30001e-05
 Reference value :  3.30002e-05
 Reference value :  3.30003e-05
 Reference value :  3.30013e-05
 Reference value :  3.30022e-05
 Reference value :  3.30040e-05
 Reference value :  3.30055e-05
 Reference value :  3.30073e-05
 Reference value :  3.30090e-05
 Reference value :  3.30124e-05
 Reference value :  3.30475e-05
 Reference value :  3.31978e-05
 Reference value :  3.32501e-05
 Reference value :  3.32502e-05
 Reference value :  3.32503e-05
 Reference value :  3.32509e-05
 Reference value :  3.32518e-05
 Reference value :  3.32530e-05
 Reference value :  3.32544e-05
 Reference value :  3.32558e-05
 Reference value :  3.32576e-05
 Reference value :  3.32584e-05
 Reference value :  3.32607e-05
 Reference value :  3.32683e-05
 Reference value :  3.33069e-05
 Reference value :  3.35000e-05
 Reference value :  3.35013e-05
 Reference value :  3.35039e-05
 Reference value :  3.35053e-05
 Reference value :  3.35077e-05
 Reference value :  3.35098e-05
 Reference value :  3.35117e-05
 Reference value :  3.35162e-05
 Reference value :  3.35200e-05
 Reference value :  3.35218e-05
 Reference value :  3.35278e-05
 Reference value :  3.35380e-05
 Reference value :  3.36174e-05
 Reference value :  3.37501e-05
 Reference value :  3.37502e-05
 Reference value :  3.37503e-05
 Reference value :  3.37510e-05
 Reference value :  3.37519e-05
 Reference value :  3.37538e-05
 Reference value :  3.37555e-05
 Reference value :  3.37577e-05
 Reference value :  3.37643e-05
 Reference value :  3.37934e-05
 Reference value :  3.39709e-05
 Reference value :  3.40000e-05
 Reference value :  3.40001e-05
 Reference value :  3.40002e-05
 Reference value :  3.40006e-05
 Reference value :  3.40015e-05
 Reference value :  3.40026e-05
 Reference value :  3.40038e-05
 Reference value :  3.40053e-05
 Reference value :  3.40060e-05
 Reference value :  3.40088e-05
 Reference value :  3.40189e-05
 Reference value :  3.40243e-05
 Reference value :  3.40284e-05
 Reference value :  3.40314e-05
 Reference value :  3.40342e-05
 Reference value :  3.40385e-05
 Reference value :  3.40430e-05
 Reference value :  3.40540e-05
 Reference value :  3.40819e-05
 Reference value :  3.41537e-05
 Reference value :  3.42501e-05
 Reference value :  3.42502e-05
 Reference value :  3.42503e-05
 Reference value :  3.42509e-05
 Reference value :  3.42519e-05
 Reference value :  3.42538e-05
 Reference value :  3.42551e-05
 Reference value :  3.42576e-05
 Reference value :  3.42655e-05
 Reference value :  3.43048e-05
 Reference value :  3.45000e-05
 Reference value :  3.45001e-05
 Reference value :  3.45002e-05
 Reference value :  3.45003e-05
 Reference value :  3.45008e-05
 Reference value :  3.45013e-05
 Reference value :  3.45022e-05
 Reference value :  3.45032e-05
 Reference value :  3.45044e-05
 Reference value :  3.45072e-05
 Reference value :  3.45101e-05
 Reference value :  3.45127e-05
 Reference value :  3.45156e-05
 Reference value :  3.45192e-05
 Reference value :  3.45320e-05
 Reference value :  3.46520e-05
 Reference value :  3.47501e-05
 Reference value :  3.47502e-05
 Reference value :  3.47503e-05
 Reference value :  3.47507e-05
 Reference value :  3.47514e-05
 Reference value :  3.47524e-05
 Reference value :  3.47538e-05
 Reference value :  3.47551e-05
 Reference value :  3.47576e-05
 Reference value :  3.47725e-05
 Reference value :  3.50000e-05
 Reference value :  3.50001e-05
 Reference value :  3.50002e-05
 Reference value :  3.50013e-05
 Reference value :  3.50022e-05
 Reference value :  3.50033e-05
 Reference value :  3.50044e-05
 Reference value :  3.50056e-05
 Reference value :  3.50067e-05
 Reference value :  3.50084e-05
 Reference value :  3.50114e-05
 Reference value :  3.50139e-05
 Reference value :  3.50171e-05
 Reference value :  3.50227e-05
 Reference value :  3.50892e-05
 Reference value :  3.52501e-05
 Reference value :  3.52502e-05
 Reference value :  3.52507e-05
 Reference value :  3.52518e-05
 Reference value :  3.52538e-05
 Reference value :  3.52557e-05
 Reference value :  3.52615e-05
 Reference value :  3.53050e-05
 Reference value :  3.55000e-05
 Reference value :  3.55001e-05
 Reference value :  3.55002e-05
 Reference value :  3.55008e-05
 Reference value :  3.55022e-05
 Reference value :  3.55038e-05
 Reference value :  3.55062e-05
 Reference value :  3.55093e-05
 Reference value :  3.55129e-05
 Reference value :  3.55780e-05
 Reference value :  3.57501e-05
 Reference value :  3.57502e-05
 Reference value :  3.57507e-05
 Reference value :  3.57518e-05
 Reference value :  3.57538e-05
 Reference value :  3.57551e-05
 Reference value :  3.57576e-05
 Reference value :  3.57655e-05
 Reference value :  3.58049e-05
 Reference value :  3.60018e-05
 Reference value :  3.60071e-05
 Reference value :  3.60125e-05
 Reference value :  3.60153e-05
 Reference value :  3.60178e-05
 Reference value :  3.60228e-05
 Reference value :  3.60334e-05
 Reference value :  3.60456e-05
 Reference value :  3.60589e-05
 Reference value :  3.60837e-05
 Reference value :  3.60980e-05
 Reference value :  3.61992e-05
 Reference value :  3.62501e-05
 Reference value :  3.62502e-05
 Reference value :  3.62504e-05
 Reference value :  3.62514e-05
 Reference value :  3.62524e-05
 Reference value :  3.62543e-05
 Reference value :  3.62565e-05
 Reference value :  3.62646e-05
 Reference value :  3.63937e-05
 Reference value :  3.65000e-05
 Reference value :  3.65001e-05
 Reference value :  3.65003e-05
 Reference value :  3.65008e-05
 Reference value :  3.65022e-05
 Reference value :  3.65047e-05
 Reference value :  3.65074e-05
 Reference value :  3.65090e-05
 Reference value :  3.65124e-05
 Reference value :  3.65471e-05
 Reference value :  3.67501e-05
 Reference value :  3.67502e-05
 Reference value :  3.67507e-05
 Reference value :  3.67518e-05
 Reference value :  3.67538e-05
 Reference value :  3.67550e-05
 Reference value :  3.67576e-05
 Reference value :  3.67607e-05
 Reference value :  3.68074e-05
 Reference value :  3.70000e-05
 Reference value :  3.70001e-05
 Reference value :  3.70002e-05
 Reference value :  3.70005e-05
 Reference value :  3.70013e-05
 Reference value :  3.70022e-05
 Reference value :  3.70039e-05
 Reference value :  3.70050e-05
 Reference value :  3.70061e-05
 Reference value :  3.70084e-05
 Reference value :  3.70107e-05
 Reference value :  3.70128e-05
 Reference value :  3.70145e-05
 Reference value :  3.70165e-05
 Reference value :  3.70185e-05
 Reference value :  3.70267e-05
 Reference value :  3.70465e-05
 Reference value :  3.70575e-05
 Reference value :  3.70649e-05
 Reference value :  3.70811e-05
 Reference value :  3.71201e-05
 Reference value :  3.72501e-05
 Reference value :  3.72502e-05
 Reference value :  3.72503e-05
 Reference value :  3.72514e-05
 Reference value :  3.72530e-05
 Reference value :  3.72550e-05
 Reference value :  3.72592e-05
 Reference value :  3.72839e-05
 Reference value :  3.75000e-05
 Reference value :  3.75001e-05
 Reference value :  3.75003e-05
 Reference value :  3.75018e-05
 Reference value :  3.75032e-05
 Reference value :  3.75044e-05
 Reference value :  3.75072e-05
 Reference value :  3.75093e-05
 Reference value :  3.75129e-05
 Reference value :  3.76426e-05
 Reference value :  3.77501e-05
 Reference value :  3.77502e-05
 Reference value :  3.77504e-05
 Reference value :  3.77514e-05
 Reference value :  3.77530e-05
 Reference value :  3.77544e-05
 Reference value :  3.77567e-05
 Reference value :  3.77614e-05
 Reference value :  3.77839e-05
 Reference value :  3.79052e-05
 Reference value :  3.80000e-05
 Reference value :  3.80001e-05
 Reference value :  3.80002e-05
 Reference value :  3.80005e-05
 Reference value :  3.80013e-05
 Reference value :  3.80022e-05
 Reference value :  3.80033e-05
 Reference value :  3.80044e-05
 Reference value :  3.80056e-05
 Reference value :  3.80061e-05
 Reference value :  3.80076e-05
 Reference value :  3.80100e-05
 Reference value :  3.80128e-05
 Reference value :  3.80149e-05
 Reference value :  3.80171e-05
 Reference value :  3.80194e-05
 Reference value :  3.80257e-05
 Reference value :  3.80313e-05
 Reference value :  3.80363e-05
 Reference value :  3.80413e-05
 Reference value :  3.80549e-05
 Reference value :  3.80734e-05
 Reference value :  3.81922e-05
 Reference value :  3.82502e-05
 Reference value :  3.82503e-05
 Reference value :  3.82509e-05
 Reference value :  3.82518e-05
 Reference value :  3.82537e-05
 Reference value :  3.82558e-05
 Reference value :  3.82618e-05
 Reference value :  3.83046e-05
 Reference value :  3.85018e-05
 Reference value :  3.85055e-05
 Reference value :  3.85074e-05
 Reference value :  3.85108e-05
 Reference value :  3.85165e-05
 Reference value :  3.85425e-05
 Reference value :  3.87501e-05
 Reference value :  3.87502e-05
 Reference value :  3.87502e-05
 Reference value :  3.87504e-05
 Reference value :  3.87514e-05
 Reference value :  3.87524e-05
 Reference value :  3.87542e-05
 Reference value :  3.87562e-05
 Reference value :  3.87580e-05
 Reference value :  3.87621e-05
 Reference value :  3.87735e-05
 Reference value :  3.88270e-05
 Reference value :  3.90000e-05
 Reference value :  3.90001e-05
 Reference value :  3.90001e-05
 Reference value :  3.90003e-05
 Reference value :  3.90013e-05
 Reference value :  3.90022e-05
 Reference value :  3.90033e-05
 Reference value :  3.90044e-05
 Reference value :  3.90056e-05
 Reference value :  3.90061e-05
 Reference value :  3.90084e-05
 Reference value :  3.90107e-05
 Reference value :  3.90129e-05
 Reference value :  3.90145e-05
 Reference value :  3.90176e-05
 Reference value :  3.90240e-05
 Reference value :  3.90332e-05
 Reference value :  3.90418e-05
 Reference value :  3.90555e-05
 Reference value :  3.90891e-05
 Reference value :  3.91024e-05
 Reference value :  3.91215e-05
 Reference value :  3.92264e-05
 Reference value :  3.92501e-05
 Reference value :  3.92503e-05
 Reference value :  3.92509e-05
 Reference value :  3.92524e-05
 Reference value :  3.92544e-05
 Reference value :  3.92568e-05
 Reference value :  3.92730e-05
 Reference value :  3.94016e-05
 Reference value :  3.95001e-05
 Reference value :  3.95002e-05
 Reference value :  3.95005e-05
 Reference value :  3.95018e-05
 Reference value :  3.95033e-05
 Reference value :  3.95047e-05
 Reference value :  3.95073e-05
 Reference value :  3.95090e-05
 Reference value :  3.95149e-05
 Reference value :  3.97501e-05
 Reference value :  3.97502e-05
 Reference value :  3.97502e-05
 Reference value :  3.97504e-05
 Reference value :  3.97514e-05
 Reference value :  3.97530e-05
 Reference value :  3.97544e-05
 Reference value :  3.97567e-05
 Reference value :  3.97593e-05
 Reference value :  3.97683e-05
 Reference value :  3.99235e-05
 Reference value :  4.00001e-05
 Reference value :  4.00001e-05
 Reference value :  4.00003e-05
 Reference value :  4.00013e-05
 Reference value :  4.00022e-05
 Reference value :  4.00039e-05
 Reference value :  4.00050e-05
 Reference value :  4.00056e-05
 Reference value :  4.00067e-05
 Reference value :  4.00097e-05
 Reference value :  4.00117e-05
 Reference value :  4.00137e-05
 Reference value :  4.00176e-05
 Reference value :  4.00239e-05
 Reference value :  4.00404e-05
 Reference value :  4.00782e-05
 Reference value :  4.01164e-05
 Reference value :  4.02501e-05
 Reference value :  4.02502e-05
 Reference value :  4.02507e-05
 Reference value :  4.02514e-05
 Reference value :  4.02537e-05
 Reference value :  4.02550e-05
 Reference value :  4.02591e-05
 Reference value :  4.03388e-05
 Reference value :  4.05001e-05
 Reference value :  4.05002e-05
 Reference value :  4.05013e-05
 Reference value :  4.05033e-05
 Reference value :  4.05047e-05
 Reference value :  4.05073e-05
 Reference value :  4.05100e-05
 Reference value :  4.05289e-05
 Reference value :  4.07501e-05
 Reference value :  4.07502e-05
 Reference value :  4.07502e-05
 Reference value :  4.07504e-05
 Reference value :  4.07509e-05
 Reference value :  4.07514e-05
 Reference value :  4.07530e-05
 Reference value :  4.07544e-05
 Reference value :  4.07567e-05
 Reference value :  4.07584e-05
 Reference value :  4.07607e-05
 Reference value :  4.07683e-05
 Reference value :  4.08473e-05
 Reference value :  4.10013e-05
 Reference value :  4.10051e-05
 Reference value :  4.10074e-05
 Reference value :  4.10104e-05
 Reference value :  4.10124e-05
 Reference value :  4.10141e-05
 Reference value :  4.10157e-05
 Reference value :  4.10177e-05
 Reference value :  4.10197e-05
 Reference value :  4.10257e-05
 Reference value :  4.10482e-05
 Reference value :  4.11982e-05
 Reference value :  4.12501e-05
 Reference value :  4.12502e-05
 Reference value :  4.12503e-05
 Reference value :  4.12509e-05
 Reference value :  4.12519e-05
 Reference value :  4.12530e-05
 Reference value :  4.12543e-05
 Reference value :  4.12566e-05
 Reference value :  4.12613e-05
 Reference value :  4.12832e-05
 Reference value :  4.13973e-05
 Reference value :  4.15000e-05
 Reference value :  4.15001e-05
 Reference value :  4.15002e-05
 Reference value :  4.15008e-05
 Reference value :  4.15018e-05
 Reference value :  4.15026e-05
 Reference value :  4.15039e-05
 Reference value :  4.15055e-05
 Reference value :  4.15073e-05
 Reference value :  4.15090e-05
 Reference value :  4.15112e-05
 Reference value :  4.15195e-05
 Reference value :  4.15835e-05
 Reference value :  4.17501e-05
 Reference value :  4.17502e-05
 Reference value :  4.17503e-05
 Reference value :  4.17507e-05
 Reference value :  4.17514e-05
 Reference value :  4.17523e-05
 Reference value :  4.17538e-05
 Reference value :  4.17550e-05
 Reference value :  4.17567e-05
 Reference value :  4.17584e-05
 Reference value :  4.17621e-05
 Reference value :  4.17872e-05
 Reference value :  4.19233e-05
 Reference value :  4.20000e-05
 Reference value :  4.20001e-05
 Reference value :  4.20002e-05
 Reference value :  4.20005e-05
 Reference value :  4.20013e-05
 Reference value :  4.20022e-05
 Reference value :  4.20033e-05
 Reference value :  4.20044e-05
 Reference value :  4.20056e-05
 Reference value :  4.20067e-05
 Reference value :  4.20084e-05
 Reference value :  4.20100e-05
 Reference value :  4.20120e-05
 Reference value :  4.20177e-05
 Reference value :  4.20336e-05
 Reference value :  4.20710e-05
 Reference value :  4.21580e-05
 Reference value :  4.22501e-05
 Reference value :  4.22502e-05
 Reference value :  4.22502e-05
 Reference value :  4.22504e-05
 Reference value :  4.22510e-05
 Reference value :  4.22519e-05
 Reference value :  4.22530e-05
 Reference value :  4.22548e-05
 Reference value :  4.22579e-05
 Reference value :  4.22712e-05
 Reference value :  4.23838e-05
 Reference value :  4.25000e-05
 Reference value :  4.25001e-05
 Reference value :  4.25006e-05
 Reference value :  4.25015e-05
 Reference value :  4.25026e-05
 Reference value :  4.25038e-05
 Reference value :  4.25060e-05
 Reference value :  4.25088e-05
 Reference value :  4.25189e-05
 Reference value :  4.25243e-05
 Reference value :  4.25283e-05
 Reference value :  4.25314e-05
 Reference value :  4.25341e-05
 Reference value :  4.25363e-05
 Reference value :  4.25402e-05
 Reference value :  4.25414e-05
 Reference value :  4.25435e-05
 Reference value :  4.25502e-05
 Reference value :  4.25688e-05
 Reference value :  4.26038e-05
 Reference value :  4.26581e-05
 Reference value :  4.27501e-05
 Reference value :  4.27502e-05
 Reference value :  4.27502e-05
 Reference value :  4.27503e-05
 Reference value :  4.27507e-05
 Reference value :  4.27514e-05
 Reference value :  4.27524e-05
 Reference value :  4.27538e-05
 Reference value :  4.27544e-05
 Reference value :  4.27557e-05
 Reference value :  4.27576e-05
 Reference value :  4.27654e-05
 Reference value :  4.28047e-05
 Reference value :  4.30000e-05
 Reference value :  4.30001e-05
 Reference value :  4.30002e-05
 Reference value :  4.30005e-05
 Reference value :  4.30013e-05
 Reference value :  4.30022e-05
 Reference value :  4.30032e-05
 Reference value :  4.30044e-05
 Reference value :  4.30062e-05
 Reference value :  4.30089e-05
 Reference value :  4.30114e-05
 Reference value :  4.30127e-05
 Reference value :  4.30156e-05
 Reference value :  4.30215e-05
 Reference value :  4.30571e-05
 Reference value :  4.32501e-05
 Reference value :  4.32502e-05
 Reference value :  4.32503e-05
 Reference value :  4.32504e-05
 Reference value :  4.32514e-05
 Reference value :  4.32524e-05
 Reference value :  4.32538e-05
 Reference value :  4.32544e-05
 Reference value :  4.32558e-05
 Reference value :  4.32576e-05
 Reference value :  4.32655e-05
 Reference value :  4.33049e-05
 Reference value :  4.35000e-05
 Reference value :  4.35018e-05
 Reference value :  4.35054e-05
 Reference value :  4.35072e-05
 Reference value :  4.35111e-05
 Reference value :  4.35127e-05
 Reference value :  4.35141e-05
 Reference value :  4.35165e-05
 Reference value :  4.35177e-05
 Reference value :  4.35203e-05
 Reference value :  4.35288e-05
 Reference value :  4.35676e-05
 Reference value :  4.37501e-05
 Reference value :  4.37502e-05
 Reference value :  4.37502e-05
 Reference value :  4.37504e-05
 Reference value :  4.37514e-05
 Reference value :  4.37524e-05
 Reference value :  4.37536e-05
 Reference value :  4.37542e-05
 Reference value :  4.37562e-05
 Reference value :  4.37604e-05
 Reference value :  4.37964e-05
 Reference value :  4.40000e-05
 Reference value :  4.40002e-05
 Reference value :  4.40013e-05
 Reference value :  4.40027e-05
 Reference value :  4.40038e-05
 Reference value :  4.40051e-05
 Reference value :  4.40072e-05
 Reference value :  4.40093e-05
 Reference value :  4.40116e-05
 Reference value :  4.40285e-05
 Reference value :  4.42501e-05
 Reference value :  4.42502e-05
 Reference value :  4.42507e-05
 Reference value :  4.42514e-05
 Reference value :  4.42530e-05
 Reference value :  4.42544e-05
 Reference value :  4.42567e-05
 Reference value :  4.42725e-05
 Reference value :  4.45000e-05
 Reference value :  4.45001e-05
 Reference value :  4.45002e-05
 Reference value :  4.45008e-05
 Reference value :  4.45022e-05
 Reference value :  4.45033e-05
 Reference value :  4.45044e-05
 Reference value :  4.45056e-05
 Reference value :  4.45061e-05
 Reference value :  4.45076e-05
 Reference value :  4.45100e-05
 Reference value :  4.45128e-05
 Reference value :  4.45149e-05
 Reference value :  4.45171e-05
 Reference value :  4.45194e-05
 Reference value :  4.45262e-05
 Reference value :  4.45392e-05
 Reference value :  4.45469e-05
 Reference value :  4.45553e-05
 Reference value :  4.45717e-05
 Reference value :  4.46293e-05
 Reference value :  4.47501e-05
 Reference value :  4.47502e-05
 Reference value :  4.47502e-05
 Reference value :  4.47504e-05
 Reference value :  4.47514e-05
 Reference value :  4.47530e-05
 Reference value :  4.47551e-05
 Reference value :  4.47579e-05
 Reference value :  4.47729e-05
 Reference value :  4.49008e-05
 Reference value :  4.50000e-05
 Reference value :  4.50001e-05
 Reference value :  4.50002e-05
 Reference value :  4.50008e-05
 Reference value :  4.50013e-05
 Reference value :  4.50022e-05
 Reference value :  4.50039e-05
 Reference value :  4.50055e-05
 Reference value :  4.50073e-05
 Reference value :  4.50090e-05
 Reference value :  4.50124e-05
 Reference value :  4.50476e-05
 Reference value :  4.52501e-05
 Reference value :  4.52501e-05
 Reference value :  4.52502e-05
 Reference value :  4.52503e-05
 Reference value :  4.52509e-05
 Reference value :  4.52514e-05
 Reference value :  4.52524e-05
 Reference value :  4.52538e-05
 Reference value :  4.52544e-05
 Reference value :  4.52558e-05
 Reference value :  4.52567e-05
 Reference value :  4.52584e-05
 Reference value :  4.52607e-05
 Reference value :  4.52683e-05
 Reference value :  4.53079e-05
 Reference value :  4.55000e-05
 Reference value :  4.55000e-05
 Reference value :  4.55001e-05
 Reference value :  4.55002e-05
 Reference value :  4.55003e-05
 Reference value :  4.55008e-05
 Reference value :  4.55013e-05
 Reference value :  4.55022e-05
 Reference value :  4.55033e-05
 Reference value :  4.55044e-05
 Reference value :  4.55056e-05
 Reference value :  4.55061e-05
 Reference value :  4.55076e-05
 Reference value :  4.55097e-05
 Reference value :  4.55107e-05
 Reference value :  4.55117e-05
 Reference value :  4.55137e-05
 Reference value :  4.55155e-05
 Reference value :  4.55175e-05
 Reference value :  4.55185e-05
 Reference value :  4.55213e-05
 Reference value :  4.55385e-05
 Reference value :  4.55459e-05
 Reference value :  4.55523e-05
 Reference value :  4.55573e-05
 Reference value :  4.55611e-05
 Reference value :  4.55657e-05
 Reference value :  4.55745e-05
 Reference value :  4.55905e-05
 Reference value :  4.56559e-05
 Reference value :  4.57501e-05
 Reference value :  4.57502e-05
 Reference value :  4.57503e-05
 Reference value :  4.57509e-05
 Reference value :  4.57514e-05
 Reference value :  4.57524e-05
 Reference value :  4.57538e-05
 Reference value :  4.57550e-05
 Reference value :  4.57576e-05
 Reference value :  4.57724e-05
 Reference value :  4.58403e-05
 Reference value :  4.59338e-05
 Reference value :  4.59665e-05
 Reference value :  4.60000e-05
 Reference value :  4.60001e-05
 Reference value :  4.60001e-05
 Reference value :  4.60001e-05
 Reference value :  4.60003e-05
 Reference value :  4.60008e-05
 Reference value :  4.60017e-05
 Reference value :  4.60021e-05
 Reference value :  4.60032e-05
 Reference value :  4.60045e-05
 Reference value :  4.60064e-05
 Reference value :  4.60073e-05
 Reference value :  4.60082e-05
 Reference value :  4.60091e-05
 Reference value :  4.60113e-05
 Reference value :  4.60150e-05
 Reference value :  4.60491e-05
 Reference value :  4.62501e-05
 Reference value :  4.62501e-05
 Reference value :  4.62502e-05
 Reference value :  4.62503e-05
 Reference value :  4.62504e-05
 Reference value :  4.62509e-05
 Reference value :  4.62514e-05
 Reference value :  4.62524e-05
 Reference value :  4.62538e-05
 Reference value :  4.62544e-05
 Reference value :  4.62558e-05
 Reference value :  4.62576e-05
 Reference value :  4.62584e-05
 Reference value :  4.62607e-05
 Reference value :  4.62683e-05
 Reference value :  4.63081e-05
 Reference value :  4.64266e-05
 Reference value :  4.65000e-05
 Reference value :  4.65001e-05
 Reference value :  4.65001e-05
 Reference value :  4.65002e-05
 Reference value :  4.65003e-05
 Reference value :  4.65008e-05
 Reference value :  4.65013e-05
 Reference value :  4.65022e-05
 Reference value :  4.65033e-05
 Reference value :  4.65044e-05
 Reference value :  4.65056e-05
 Reference value :  4.65067e-05
 Reference value :  4.65097e-05
 Reference value :  4.65107e-05
 Reference value :  4.65128e-05
 Reference value :  4.65145e-05
 Reference value :  4.65176e-05
 Reference value :  4.65219e-05
 Reference value :  4.65245e-05
 Reference value :  4.65271e-05
 Reference value :  4.65484e-05
 Reference value :  4.66111e-05
 Reference value :  4.66648e-05
 Reference value :  4.67501e-05
 Reference value :  4.67502e-05
 Reference value :  4.67502e-05
 Reference value :  4.67504e-05
 Reference value :  4.67509e-05
 Reference value :  4.67514e-05
 Reference value :  4.67530e-05
 Reference value :  4.67544e-05
 Reference value :  4.67567e-05
 Reference value :  4.67654e-05
 Reference value :  4.68403e-05
 Reference value :  4.70000e-05
 Reference value :  4.70001e-05
 Reference value :  4.70002e-05
 Reference value :  4.70013e-05
 Reference value :  4.70022e-05
 Reference value :  4.70032e-05
 Reference value :  4.70044e-05
 Reference value :  4.70062e-05
 Reference value :  4.70082e-05
 Reference value :  4.70116e-05
 Reference value :  4.70286e-05
 Reference value :  4.72501e-05
 Reference value :  4.72502e-05
 Reference value :  4.72503e-05
 Reference value :  4.72507e-05
 Reference value :  4.72514e-05
 Reference value :  4.72530e-05
 Reference value :  4.72544e-05
 Reference value :  4.72558e-05
 Reference value :  4.72576e-05
 Reference value :  4.72655e-05
 Reference value :  4.73049e-05
 Reference value :  4.75000e-05
 Reference value :  4.75001e-05
 Reference value :  4.75001e-05
 Reference value :  4.75003e-05
 Reference value :  4.75013e-05
 Reference value :  4.75022e-05
 Reference value :  4.75039e-05
 Reference value :  4.75056e-05
[...]
 Reference value :  2.60765e-04
 Reference value :  2.60784e-04
 Reference value :  2.60905e-04
 Reference value :  2.61000e-04
 Reference value :  2.61000e-04
 Reference value :  2.61000e-04
 Reference value :  2.61000e-04
 Reference value :  2.61000e-04
 Reference value :  2.61001e-04
 Reference value :  2.61002e-04
 Reference value :  2.61003e-04
 Reference value :  2.61004e-04
 Reference value :  2.61006e-04
 Reference value :  2.61007e-04
 Reference value :  2.61010e-04
 Reference value :  2.61013e-04
 Reference value :  2.61015e-04
 Reference value :  2.61017e-04
 Reference value :  2.61021e-04
 Reference value :  2.61030e-04
 Reference value :  2.61043e-04
 Reference value :  2.61057e-04
 Reference value :  2.61073e-04
 Reference value :  2.61089e-04
 Reference value :  2.61112e-04
 Reference value :  2.61190e-04
 Reference value :  2.61250e-04
 Reference value :  2.61250e-04
 Reference value :  2.61250e-04
 Reference value :  2.61251e-04
 Reference value :  2.61251e-04
 Reference value :  2.61253e-04
 Reference value :  2.61254e-04
 Reference value :  2.61258e-04
 Reference value :  2.61284e-04
 Reference value :  2.61500e-04
 Reference value :  2.61500e-04
 Reference value :  2.61500e-04
 Reference value :  2.61500e-04
 Reference value :  2.61501e-04
 Reference value :  2.61502e-04
 Reference value :  2.61503e-04
 Reference value :  2.61504e-04
 Reference value :  2.61506e-04
 Reference value :  2.61508e-04
 Reference value :  2.61512e-04
 Reference value :  2.61545e-04
 Reference value :  2.61750e-04
 Reference value :  2.61750e-04
 Reference value :  2.61750e-04
 Reference value :  2.61750e-04
 Reference value :  2.61751e-04
 Reference value :  2.61752e-04
 Reference value :  2.61754e-04
 Reference value :  2.61755e-04
 Reference value :  2.61757e-04
 Reference value :  2.61759e-04
 Reference value :  2.61773e-04
 Reference value :  2.61840e-04
 Reference value :  2.62000e-04
 Reference value :  2.62000e-04
 Reference value :  2.62000e-04
 Reference value :  2.62001e-04
 Reference value :  2.62002e-04
 Reference value :  2.62003e-04
 Reference value :  2.62004e-04
 Reference value :  2.62006e-04
 Reference value :  2.62006e-04
 Reference value :  2.62008e-04
 Reference value :  2.62010e-04
 Reference value :  2.62013e-04
 Reference value :  2.62015e-04
 Reference value :  2.62017e-04
 Reference value :  2.62019e-04
 Reference value :  2.62026e-04
 Reference value :  2.62042e-04
 Reference value :  2.62066e-04
 Reference value :  2.62129e-04
 Reference value :  2.62201e-04
 Reference value :  2.62250e-04
 Reference value :  2.62250e-04
 Reference value :  2.62250e-04
 Reference value :  2.62251e-04
 Reference value :  2.62253e-04
 Reference value :  2.62254e-04
 Reference value :  2.62256e-04
 Reference value :  2.62259e-04
 Reference value :  2.62284e-04
 Reference value :  2.62404e-04
 Reference value :  2.62500e-04
 Reference value :  2.62500e-04
 Reference value :  2.62500e-04
 Reference value :  2.62500e-04
 Reference value :  2.62501e-04
 Reference value :  2.62502e-04
 Reference value :  2.62503e-04
 Reference value :  2.62504e-04
 Reference value :  2.62506e-04
 Reference value :  2.62508e-04
 Reference value :  2.62510e-04
 Reference value :  2.62515e-04
 Reference value :  2.62545e-04
 Reference value :  2.62750e-04
 Reference value :  2.62750e-04
 Reference value :  2.62750e-04
 Reference value :  2.62751e-04
 Reference value :  2.62752e-04
 Reference value :  2.62754e-04
 Reference value :  2.62755e-04
 Reference value :  2.62758e-04
 Reference value :  2.62772e-04
 Reference value :  2.62905e-04
 Reference value :  2.63000e-04
 Reference value :  2.63000e-04
 Reference value :  2.63000e-04
 Reference value :  2.63002e-04
 Reference value :  2.63003e-04
 Reference value :  2.63004e-04
 Reference value :  2.63004e-04
 Reference value :  2.63006e-04
 Reference value :  2.63006e-04
 Reference value :  2.63008e-04
 Reference value :  2.63009e-04
 Reference value :  2.63011e-04
 Reference value :  2.63027e-04
 Reference value :  2.63149e-04
 Reference value :  2.63250e-04
 Reference value :  2.63250e-04
 Reference value :  2.63250e-04
 Reference value :  2.63250e-04
 Reference value :  2.63251e-04
 Reference value :  2.63251e-04
 Reference value :  2.63252e-04
 Reference value :  2.63253e-04
 Reference value :  2.63254e-04
 Reference value :  2.63256e-04
 Reference value :  2.63257e-04
 Reference value :  2.63259e-04
 Reference value :  2.63265e-04
 Reference value :  2.63281e-04
 Reference value :  2.63326e-04
 Reference value :  2.63497e-04
 Reference value :  2.63500e-04
 Reference value :  2.63500e-04
 Reference value :  2.63500e-04
 Reference value :  2.63500e-04
 Reference value :  2.63500e-04
 Reference value :  2.63501e-04
 Reference value :  2.63502e-04
 Reference value :  2.63503e-04
 Reference value :  2.63504e-04
 Reference value :  2.63505e-04
 Reference value :  2.63506e-04
 Reference value :  2.63508e-04
 Reference value :  2.63514e-04
 Reference value :  2.63524e-04
 Reference value :  2.63528e-04
 Reference value :  2.63531e-04
 Reference value :  2.63534e-04
 Reference value :  2.63538e-04
 Reference value :  2.63542e-04
 Reference value :  2.63551e-04
 Reference value :  2.63578e-04
 Reference value :  2.63649e-04
 Reference value :  2.63750e-04
 Reference value :  2.63750e-04
 Reference value :  2.63751e-04
 Reference value :  2.63752e-04
 Reference value :  2.63754e-04
 Reference value :  2.63755e-04
 Reference value :  2.63758e-04
 Reference value :  2.63773e-04
 Reference value :  2.63903e-04
 Reference value :  2.64000e-04
 Reference value :  2.64000e-04
 Reference value :  2.64000e-04
 Reference value :  2.64001e-04
 Reference value :  2.64002e-04
 Reference value :  2.64003e-04
 Reference value :  2.64004e-04
 Reference value :  2.64005e-04
 Reference value :  2.64009e-04
 Reference value :  2.64013e-04
 Reference value :  2.64016e-04
 Reference value :  2.64021e-04
 Reference value :  2.64057e-04
 Reference value :  2.64250e-04
 Reference value :  2.64250e-04
 Reference value :  2.64250e-04
 Reference value :  2.64251e-04
 Reference value :  2.64251e-04
 Reference value :  2.64252e-04
 Reference value :  2.64254e-04
 Reference value :  2.64254e-04
 Reference value :  2.64256e-04
 Reference value :  2.64258e-04
 Reference value :  2.64265e-04
 Reference value :  2.64339e-04
 Reference value :  2.64500e-04
 Reference value :  2.64500e-04
 Reference value :  2.64500e-04
 Reference value :  2.64500e-04
 Reference value :  2.64501e-04
 Reference value :  2.64501e-04
 Reference value :  2.64502e-04
 Reference value :  2.64503e-04
 Reference value :  2.64504e-04
 Reference value :  2.64506e-04
 Reference value :  2.64507e-04
 Reference value :  2.64510e-04
 Reference value :  2.64513e-04
 Reference value :  2.64515e-04
 Reference value :  2.64517e-04
 Reference value :  2.64521e-04
 Reference value :  2.64541e-04
 Reference value :  2.64628e-04
 Reference value :  2.64667e-04
 Reference value :  2.64694e-04
 Reference value :  2.64706e-04
 Reference value :  2.64725e-04
 Reference value :  2.64750e-04
 Reference value :  2.64750e-04
 Reference value :  2.64750e-04
 Reference value :  2.64751e-04
 Reference value :  2.64751e-04
 Reference value :  2.64752e-04
 Reference value :  2.64754e-04
 Reference value :  2.64755e-04
 Reference value :  2.64758e-04
 Reference value :  2.64765e-04
 Reference value :  2.64802e-04
 Reference value :  2.64997e-04
 Reference value :  2.65000e-04
 Reference value :  2.65000e-04
 Reference value :  2.65000e-04
 Reference value :  2.65000e-04
 Reference value :  2.65001e-04
 Reference value :  2.65002e-04
 Reference value :  2.65004e-04
 Reference value :  2.65006e-04
 Reference value :  2.65007e-04
 Reference value :  2.65009e-04
 Reference value :  2.65011e-04
 Reference value :  2.65020e-04
 Reference value :  2.65083e-04
 Reference value :  2.65250e-04
 Reference value :  2.65250e-04
 Reference value :  2.65250e-04
 Reference value :  2.65251e-04
 Reference value :  2.65251e-04
 Reference value :  2.65252e-04
 Reference value :  2.65254e-04
 Reference value :  2.65254e-04
 Reference value :  2.65256e-04
 Reference value :  2.65257e-04
 Reference value :  2.65258e-04
 Reference value :  2.65262e-04
 Reference value :  2.65287e-04
 Reference value :  2.65500e-04
 Reference value :  2.65500e-04
 Reference value :  2.65500e-04
 Reference value :  2.65500e-04
 Reference value :  2.65501e-04
 Reference value :  2.65502e-04
 Reference value :  2.65503e-04
 Reference value :  2.65504e-04
 Reference value :  2.65506e-04
 Reference value :  2.65506e-04
 Reference value :  2.65508e-04
 Reference value :  2.65510e-04
 Reference value :  2.65511e-04
 Reference value :  2.65512e-04
 Reference value :  2.65514e-04
 Reference value :  2.65515e-04
 Reference value :  2.65517e-04
 Reference value :  2.65520e-04
 Reference value :  2.65523e-04
 Reference value :  2.65541e-04
 Reference value :  2.65562e-04
 Reference value :  2.65573e-04
 Reference value :  2.65579e-04
 Reference value :  2.65591e-04
 Reference value :  2.65610e-04
 Reference value :  2.65645e-04
 Reference value :  2.65716e-04
 Reference value :  2.65750e-04
 Reference value :  2.65750e-04
 Reference value :  2.65750e-04
 Reference value :  2.65751e-04
 Reference value :  2.65751e-04
 Reference value :  2.65752e-04
 Reference value :  2.65754e-04
 Reference value :  2.65755e-04
 Reference value :  2.65757e-04
 Reference value :  2.65761e-04
 Reference value :  2.65805e-04
 Reference value :  2.66000e-04
 Reference value :  2.66000e-04
 Reference value :  2.66000e-04
 Reference value :  2.66000e-04
 Reference value :  2.66000e-04
 Reference value :  2.66001e-04
 Reference value :  2.66002e-04
 Reference value :  2.66004e-04
 Reference value :  2.66005e-04
 Reference value :  2.66008e-04
 Reference value :  2.66012e-04
 Reference value :  2.66045e-04
 Reference value :  2.66250e-04
 Reference value :  2.66250e-04
 Reference value :  2.66251e-04
 Reference value :  2.66252e-04
 Reference value :  2.66253e-04
 Reference value :  2.66254e-04
 Reference value :  2.66255e-04
 Reference value :  2.66258e-04
 Reference value :  2.66265e-04
 Reference value :  2.66340e-04
 Reference value :  2.66500e-04
 Reference value :  2.66500e-04
 Reference value :  2.66500e-04
 Reference value :  2.66501e-04
 Reference value :  2.66502e-04
 Reference value :  2.66503e-04
 Reference value :  2.66504e-04
 Reference value :  2.66506e-04
 Reference value :  2.66507e-04
 Reference value :  2.66510e-04
 Reference value :  2.66513e-04
 Reference value :  2.66515e-04
 Reference value :  2.66517e-04
 Reference value :  2.66521e-04
 Reference value :  2.66531e-04
 Reference value :  2.66543e-04
 Reference value :  2.66555e-04
 Reference value :  2.66565e-04
 Reference value :  2.66581e-04
 Reference value :  2.66622e-04
 Reference value :  2.66750e-04
 Reference value :  2.66750e-04
 Reference value :  2.66750e-04
 Reference value :  2.66751e-04
 Reference value :  2.66752e-04
 Reference value :  2.66754e-04
 Reference value :  2.66756e-04
 Reference value :  2.66762e-04
 Reference value :  2.66785e-04
 Reference value :  2.66901e-04
 Reference value :  2.67000e-04
 Reference value :  2.67000e-04
 Reference value :  2.67000e-04
 Reference value :  2.67001e-04
 Reference value :  2.67002e-04
 Reference value :  2.67003e-04
 Reference value :  2.67004e-04
 Reference value :  2.67006e-04
 Reference value :  2.67007e-04
 Reference value :  2.67009e-04
 Reference value :  2.67012e-04
 Reference value :  2.67048e-04
 Reference value :  2.67250e-04
 Reference value :  2.67250e-04
 Reference value :  2.67250e-04
 Reference value :  2.67251e-04
 Reference value :  2.67253e-04
 Reference value :  2.67254e-04
 Reference value :  2.67257e-04
 Reference value :  2.67258e-04
 Reference value :  2.67262e-04
 Reference value :  2.67287e-04
 Reference value :  2.67500e-04
 Reference value :  2.67500e-04
 Reference value :  2.67500e-04
 Reference value :  2.67500e-04
 Reference value :  2.67501e-04
 Reference value :  2.67502e-04
 Reference value :  2.67503e-04
 Reference value :  2.67504e-04
 Reference value :  2.67506e-04
 Reference value :  2.67510e-04
 Reference value :  2.67511e-04
 Reference value :  2.67513e-04
 Reference value :  2.67515e-04
 Reference value :  2.67516e-04
 Reference value :  2.67519e-04
 Reference value :  2.67521e-04
 Reference value :  2.67525e-04
 Reference value :  2.67527e-04
 Reference value :  2.67529e-04
 Reference value :  2.67536e-04
 Reference value :  2.67565e-04
 Reference value :  2.67612e-04
 Reference value :  2.67750e-04
 Reference value :  2.67750e-04
 Reference value :  2.67750e-04
 Reference value :  2.67751e-04
 Reference value :  2.67753e-04
 Reference value :  2.67754e-04
 Reference value :  2.67757e-04
 Reference value :  2.67765e-04
 Reference value :  2.67840e-04
 Reference value :  2.68000e-04
 Reference value :  2.68000e-04
 Reference value :  2.68000e-04
 Reference value :  2.68001e-04
 Reference value :  2.68002e-04
 Reference value :  2.68003e-04
 Reference value :  2.68004e-04
 Reference value :  2.68006e-04
 Reference value :  2.68008e-04
 Reference value :  2.68012e-04
 Reference value :  2.68029e-04
 Reference value :  2.68250e-04
 Reference value :  2.68250e-04
 Reference value :  2.68251e-04
 Reference value :  2.68252e-04
 Reference value :  2.68254e-04
 Reference value :  2.68255e-04
 Reference value :  2.68258e-04
 Reference value :  2.68273e-04
 Reference value :  2.68405e-04
 Reference value :  2.68500e-04
 Reference value :  2.68500e-04
 Reference value :  2.68500e-04
 Reference value :  2.68501e-04
 Reference value :  2.68501e-04
 Reference value :  2.68502e-04
 Reference value :  2.68504e-04
 Reference value :  2.68505e-04
 Reference value :  2.68506e-04
 Reference value :  2.68508e-04
 Reference value :  2.68513e-04
 Reference value :  2.68516e-04
 Reference value :  2.68518e-04
 Reference value :  2.68526e-04
 Reference value :  2.68547e-04
 Reference value :  2.68557e-04
 Reference value :  2.68568e-04
 Reference value :  2.68590e-04
 Reference value :  2.68625e-04
 Reference value :  2.68632e-04
 Reference value :  2.68645e-04
 Reference value :  2.68667e-04
 Reference value :  2.68740e-04
 Reference value :  2.68750e-04
 Reference value :  2.68750e-04
 Reference value :  2.68751e-04
 Reference value :  2.68751e-04
 Reference value :  2.68752e-04
 Reference value :  2.68754e-04
 Reference value :  2.68755e-04
 Reference value :  2.68758e-04
 Reference value :  2.68765e-04
 Reference value :  2.68805e-04
 Reference value :  2.69000e-04
 Reference value :  2.69000e-04
 Reference value :  2.69000e-04
 Reference value :  2.69000e-04
 Reference value :  2.69002e-04
 Reference value :  2.69003e-04
 Reference value :  2.69004e-04
 Reference value :  2.69005e-04
 Reference value :  2.69007e-04
 Reference value :  2.69009e-04
 Reference value :  2.69012e-04
 Reference value :  2.69029e-04
 Reference value :  2.69144e-04
 Reference value :  2.69250e-04
 Reference value :  2.69250e-04
 Reference value :  2.69250e-04
 Reference value :  2.69251e-04
 Reference value :  2.69252e-04
 Reference value :  2.69253e-04
 Reference value :  2.69254e-04
 Reference value :  2.69257e-04
 Reference value :  2.69261e-04
 Reference value :  2.69284e-04
 Reference value :  2.69500e-04
 Reference value :  2.69500e-04
 Reference value :  2.69500e-04
 Reference value :  2.69500e-04
 Reference value :  2.69501e-04
 Reference value :  2.69502e-04
 Reference value :  2.69503e-04
 Reference value :  2.69504e-04
 Reference value :  2.69504e-04
 Reference value :  2.69506e-04
 Reference value :  2.69506e-04
 Reference value :  2.69508e-04
 Reference value :  2.69510e-04
 Reference value :  2.69513e-04
 Reference value :  2.69514e-04
 Reference value :  2.69516e-04
 Reference value :  2.69517e-04
 Reference value :  2.69519e-04
 Reference value :  2.69526e-04
 Reference value :  2.69541e-04
 Reference value :  2.69549e-04
 Reference value :  2.69553e-04
 Reference value :  2.69565e-04
 Reference value :  2.69589e-04
 Reference value :  2.69662e-04
 Reference value :  2.69750e-04
 Reference value :  2.69750e-04
 Reference value :  2.69750e-04
 Reference value :  2.69751e-04
 Reference value :  2.69752e-04
 Reference value :  2.69754e-04
 Reference value :  2.69756e-04
 Reference value :  2.69762e-04
 Reference value :  2.69804e-04
 Reference value :  2.70000e-04
 Reference value :  2.70000e-04
 Reference value :  2.70000e-04
 Reference value :  2.70001e-04
 Reference value :  2.70002e-04
 Reference value :  2.70003e-04
 Reference value :  2.70005e-04
 Reference value :  2.70007e-04
 Reference value :  2.70008e-04
 Reference value :  2.70010e-04
 Reference value :  2.70029e-04
 Reference value :  2.70109e-04
 Reference value :  2.70126e-04
 Reference value :  2.70193e-04
 Reference value :  2.70250e-04
 Reference value :  2.70250e-04
 Reference value :  2.70250e-04
 Reference value :  2.70251e-04
 Reference value :  2.70254e-04
 Reference value :  2.70256e-04
 Reference value :  2.70261e-04
 Reference value :  2.70339e-04
 Reference value :  2.70500e-04
 Reference value :  2.70500e-04
 Reference value :  2.70500e-04
 Reference value :  2.70501e-04
 Reference value :  2.70503e-04
 Reference value :  2.70504e-04
 Reference value :  2.70504e-04
 Reference value :  2.70506e-04
 Reference value :  2.70507e-04
 Reference value :  2.70510e-04
 Reference value :  2.70513e-04
 Reference value :  2.70515e-04
 Reference value :  2.70517e-04
 Reference value :  2.70519e-04
 Reference value :  2.70526e-04
 Reference value :  2.70534e-04
 Reference value :  2.70537e-04
 Reference value :  2.70544e-04
 Reference value :  2.70553e-04
 Reference value :  2.70584e-04
 Reference value :  2.70676e-04
 Reference value :  2.70750e-04
 Reference value :  2.70750e-04
 Reference value :  2.70750e-04
 Reference value :  2.70751e-04
 Reference value :  2.70751e-04
 Reference value :  2.70752e-04
 Reference value :  2.70754e-04
 Reference value :  2.70755e-04
 Reference value :  2.70757e-04
 Reference value :  2.70762e-04
 Reference value :  2.70784e-04
 Reference value :  2.70900e-04
 Reference value :  2.71000e-04
 Reference value :  2.71000e-04
 Reference value :  2.71000e-04
 Reference value :  2.71001e-04
 Reference value :  2.71002e-04
 Reference value :  2.71003e-04
 Reference value :  2.71004e-04
 Reference value :  2.71006e-04
 Reference value :  2.71007e-04
 Reference value :  2.71009e-04
 Reference value :  2.71012e-04
 Reference value :  2.71029e-04
 Reference value :  2.71159e-04
 Reference value :  2.71250e-04
 Reference value :  2.71250e-04
 Reference value :  2.71250e-04
 Reference value :  2.71250e-04
 Reference value :  2.71251e-04
 Reference value :  2.71251e-04
 Reference value :  2.71252e-04
 Reference value :  2.71254e-04
 Reference value :  2.71254e-04
 Reference value :  2.71255e-04
 Reference value :  2.71257e-04
 Reference value :  2.71258e-04
 Reference value :  2.71261e-04
 Reference value :  2.71268e-04
 Reference value :  2.71348e-04
 Reference value :  2.71500e-04
 Reference value :  2.71500e-04
 Reference value :  2.71500e-04
 Reference value :  2.71501e-04
 Reference value :  2.71502e-04
 Reference value :  2.71503e-04
 Reference value :  2.71504e-04
 Reference value :  2.71505e-04
 Reference value :  2.71506e-04
 Reference value :  2.71508e-04
 Reference value :  2.71510e-04
 Reference value :  2.71513e-04
 Reference value :  2.71517e-04
 Reference value :  2.71532e-04
 Reference value :  2.71572e-04
 Reference value :  2.71622e-04
 Reference value :  2.71658e-04
 Reference value :  2.71709e-04
 Reference value :  2.71750e-04
 Reference value :  2.71750e-04
 Reference value :  2.71750e-04
 Reference value :  2.71751e-04
 Reference value :  2.71754e-04
 Reference value :  2.71757e-04
 Reference value :  2.71762e-04
 Reference value :  2.71796e-04
 Reference value :  2.71849e-04
 Reference value :  2.71891e-04
 Reference value :  2.71976e-04
No. of Data Rows : 39390
ngspice-44 done
