
Note: Compatibility modes selected: hs a


Circuit: ** sch_path: /home/ece/cace/sar-adc-using-sky130-pdk/runs/run_2025-09-12_20-02-31/parameters/sndr/run_0/sndr_enob_fom.sch

option SCALE: Scale is set to 1e-06 for instance and model parameters
option SCALE: Scale is set to 1e-06 for instance and model parameters
option SCALE: Scale is set to 1e-06 for instance and model parameters
option SCALE: Scale is set to 1e-06 for instance and model parameters
Doing analysis at TEMP = 27.000000 and TNOM = 27.000000

Using KLU as Direct Linear Solver
Operating point simulation skipped by 'uic',
  now using transient initial conditions.
 Reference value :  1.00000e-12
 Reference value :  1.02772e-12
 Reference value :  1.08316e-12
 Reference value :  1.19404e-12
 Reference value :  1.33842e-12
 Reference value :  1.62719e-12
 Reference value :  2.20473e-12
 Reference value :  3.03968e-12
 Reference value :  3.94597e-12
 Reference value :  5.16910e-12
 Reference value :  6.92155e-12
 Reference value :  1.02791e-11
 Reference value :  1.42715e-11
 Reference value :  2.10142e-11
 Reference value :  2.79655e-11
 Reference value :  3.70209e-11
 Reference value :  4.86303e-11
 Reference value :  6.51070e-11
 Reference value :  8.57136e-11
 Reference value :  1.00000e-10
 Reference value :  1.01207e-10
 Reference value :  1.03620e-10
 Reference value :  1.08446e-10
 Reference value :  1.18099e-10
 Reference value :  1.37405e-10
 Reference value :  1.76017e-10
 Reference value :  2.53240e-10
 Reference value :  4.05186e-10
 Reference value :  5.66932e-10
 Reference value :  8.32391e-10
 Reference value :  1.18558e-09
 Reference value :  1.59486e-09
 Reference value :  2.27338e-09
 Reference value :  2.96520e-09
 Reference value :  4.01079e-09
 Reference value :  4.93403e-09
 Reference value :  5.89569e-09
 Reference value :  6.78675e-09
 Reference value :  7.94104e-09
 Reference value :  9.17104e-09
 Reference value :  1.15081e-08
 Reference value :  1.49831e-08
 Reference value :  1.85828e-08
 Reference value :  2.15472e-08
 Reference value :  2.38600e-08
 Reference value :  2.63968e-08
 Reference value :  2.96170e-08
 Reference value :  3.29366e-08
 Reference value :  3.71439e-08
 Reference value :  4.05810e-08
 Reference value :  4.47927e-08
 Reference value :  4.87767e-08
 Reference value :  5.26289e-08
 Reference value :  5.68772e-08
 Reference value :  6.46094e-08
 Reference value :  7.36474e-08
 Reference value :  8.26716e-08
 Reference value :  9.16733e-08
 Reference value :  1.01507e-07
 Reference value :  1.17385e-07
 Reference value :  1.43730e-07
 Reference value :  1.88352e-07
 Reference value :  2.50100e-07
 Reference value :  2.50110e-07
 Reference value :  2.50130e-07
 Reference value :  2.50170e-07
 Reference value :  2.50200e-07
 Reference value :  2.50201e-07
 Reference value :  2.50202e-07
 Reference value :  2.50204e-07
 Reference value :  2.50208e-07
 Reference value :  2.50216e-07
 Reference value :  2.50233e-07
 Reference value :  2.50266e-07
 Reference value :  2.50332e-07
 Reference value :  2.50439e-07
 Reference value :  2.50621e-07
 Reference value :  2.50815e-07
 Reference value :  2.51149e-07
 Reference value :  2.51594e-07
 Reference value :  2.52132e-07
 Reference value :  2.52729e-07
 Reference value :  2.53372e-07
 Reference value :  2.54223e-07
 Reference value :  2.55151e-07
 Reference value :  2.56036e-07
 Reference value :  2.56926e-07
 Reference value :  2.57893e-07
 Reference value :  2.58825e-07
 Reference value :  2.60352e-07
 Reference value :  2.62167e-07
 Reference value :  2.64665e-07
 Reference value :  2.68339e-07
 Reference value :  2.73003e-07
 Reference value :  2.82332e-07
 Reference value :  2.99781e-07
 Reference value :  3.28841e-07
 Reference value :  3.86960e-07
 Reference value :  5.00000e-07
 Reference value :  5.00010e-07
 Reference value :  5.00030e-07
 Reference value :  5.00070e-07
 Reference value :  5.00100e-07
 Reference value :  5.00104e-07
 Reference value :  5.00113e-07
 Reference value :  5.00130e-07
 Reference value :  5.00165e-07
 Reference value :  5.00234e-07
 Reference value :  5.00372e-07
 Reference value :  5.00573e-07
 Reference value :  5.00954e-07
 Reference value :  5.01538e-07
 Reference value :  5.02098e-07
 Reference value :  5.02756e-07
 Reference value :  5.03473e-07
 Reference value :  5.04378e-07
 Reference value :  5.05193e-07
 Reference value :  5.06062e-07
 Reference value :  5.07193e-07
 Reference value :  5.08302e-07
 Reference value :  5.10254e-07
 Reference value :  5.12415e-07
 Reference value :  5.14536e-07
 Reference value :  5.16800e-07
 Reference value :  5.19247e-07
 Reference value :  5.21507e-07
 Reference value :  5.24452e-07
 Reference value :  5.29126e-07
 Reference value :  5.36717e-07
 Reference value :  5.47564e-07
 Reference value :  5.69259e-07
 Reference value :  6.04192e-07
 Reference value :  6.73955e-07
 Reference value :  7.50100e-07
 Reference value :  7.50110e-07
 Reference value :  7.50130e-07
 Reference value :  7.50170e-07
 Reference value :  7.50200e-07
 Reference value :  7.50201e-07
 Reference value :  7.50202e-07
 Reference value :  7.50205e-07
 Reference value :  7.50211e-07
 Reference value :  7.50223e-07
 Reference value :  7.50247e-07
 Reference value :  7.50295e-07
 Reference value :  7.50390e-07
 Reference value :  7.50581e-07
 Reference value :  7.50959e-07
 Reference value :  7.51572e-07
 Reference value :  7.52191e-07
 Reference value :  7.52840e-07
 Reference value :  7.53542e-07
 Reference value :  7.54448e-07
 Reference value :  7.55182e-07
 Reference value :  7.56016e-07
 Reference value :  7.56745e-07
 Reference value :  7.57552e-07
 Reference value :  7.58569e-07
 Reference value :  7.59662e-07
 Reference value :  7.60742e-07
 Reference value :  7.62524e-07
 Reference value :  7.64158e-07
 Reference value :  7.67176e-07
 Reference value :  7.70212e-07
 Reference value :  7.74952e-07
 Reference value :  7.83027e-07
 Reference value :  7.93726e-07
 Reference value :  8.12237e-07
 Reference value :  8.44461e-07
 Reference value :  9.01203e-07
 Reference value :  1.00000e-06
 Reference value :  1.00001e-06
 Reference value :  1.00003e-06
 Reference value :  1.00007e-06
 Reference value :  1.00010e-06
 Reference value :  1.00010e-06
 Reference value :  1.00011e-06
 Reference value :  1.00013e-06
 Reference value :  1.00017e-06
 Reference value :  1.00023e-06
 Reference value :  1.00037e-06
 Reference value :  1.00058e-06
 Reference value :  1.00096e-06
 Reference value :  1.00154e-06
 Reference value :  1.00210e-06
 Reference value :  1.00278e-06
 Reference value :  1.00354e-06
 Reference value :  1.00443e-06
 Reference value :  1.00528e-06
 Reference value :  1.00604e-06
 Reference value :  1.00684e-06
 Reference value :  1.00758e-06
 Reference value :  1.00841e-06
 Reference value :  1.00934e-06
 Reference value :  1.01049e-06
 Reference value :  1.01235e-06
 Reference value :  1.01460e-06
 Reference value :  1.01631e-06
 Reference value :  1.01818e-06
 Reference value :  1.02030e-06
 Reference value :  1.02225e-06
 Reference value :  1.02367e-06
 Reference value :  1.02501e-06
 Reference value :  1.02655e-06
 Reference value :  1.02810e-06
 Reference value :  1.02979e-06
 Reference value :  1.03229e-06
 Reference value :  1.03498e-06
 Reference value :  1.04011e-06
 Reference value :  1.04774e-06
 Reference value :  1.06011e-06
 Reference value :  1.08484e-06
 Reference value :  1.12623e-06
 Reference value :  1.20704e-06
 Reference value :  1.25010e-06
 Reference value :  1.25011e-06
 Reference value :  1.25013e-06
 Reference value :  1.25017e-06
 Reference value :  1.25020e-06
 Reference value :  1.25020e-06
 Reference value :  1.25020e-06
 Reference value :  1.25021e-06
 Reference value :  1.25021e-06
 Reference value :  1.25022e-06
 Reference value :  1.25025e-06
 Reference value :  1.25029e-06
 Reference value :  1.25039e-06
 Reference value :  1.25057e-06
 Reference value :  1.25090e-06
 Reference value :  1.25154e-06
 Reference value :  1.25213e-06
 Reference value :  1.25276e-06
 Reference value :  1.25347e-06
 Reference value :  1.25448e-06
 Reference value :  1.25525e-06
 Reference value :  1.25607e-06
 Reference value :  1.25711e-06
 Reference value :  1.25812e-06
 Reference value :  1.25926e-06
 Reference value :  1.26155e-06
 Reference value :  1.26380e-06
 Reference value :  1.26761e-06
 Reference value :  1.27192e-06
 Reference value :  1.28052e-06
 Reference value :  1.29774e-06
 Reference value :  1.32537e-06
 Reference value :  1.38063e-06
 Reference value :  1.49115e-06
 Reference value :  1.50000e-06
 Reference value :  1.50001e-06
 Reference value :  1.50003e-06
 Reference value :  1.50007e-06
 Reference value :  1.50010e-06
 Reference value :  1.50010e-06
 Reference value :  1.50011e-06
 Reference value :  1.50013e-06
 Reference value :  1.50016e-06
 Reference value :  1.50023e-06
 Reference value :  1.50037e-06
 Reference value :  1.50057e-06
 Reference value :  1.50093e-06
 Reference value :  1.50144e-06
 Reference value :  1.50196e-06
 Reference value :  1.50257e-06
 Reference value :  1.50328e-06
 Reference value :  1.50403e-06
 Reference value :  1.50495e-06
 Reference value :  1.50586e-06
 Reference value :  1.50684e-06
 Reference value :  1.50810e-06
 Reference value :  1.50937e-06
 Reference value :  1.51068e-06
 Reference value :  1.51201e-06
 Reference value :  1.51368e-06
 Reference value :  1.51505e-06
 Reference value :  1.51665e-06
 Reference value :  1.51820e-06
 Reference value :  1.51999e-06
 Reference value :  1.52359e-06
 Reference value :  1.52941e-06
 Reference value :  1.53979e-06
 Reference value :  1.56048e-06
 Reference value :  1.60187e-06
 Reference value :  1.68464e-06
 Reference value :  1.75010e-06
 Reference value :  1.75011e-06
 Reference value :  1.75013e-06
 Reference value :  1.75017e-06
 Reference value :  1.75020e-06
 Reference value :  1.75020e-06
 Reference value :  1.75020e-06
 Reference value :  1.75021e-06
 Reference value :  1.75021e-06
 Reference value :  1.75022e-06
 Reference value :  1.75025e-06
 Reference value :  1.75029e-06
 Reference value :  1.75039e-06
 Reference value :  1.75057e-06
 Reference value :  1.75090e-06
 Reference value :  1.75156e-06
 Reference value :  1.75215e-06
 Reference value :  1.75278e-06
 Reference value :  1.75348e-06
 Reference value :  1.75439e-06
 Reference value :  1.75514e-06
 Reference value :  1.75599e-06
 Reference value :  1.75671e-06
 Reference value :  1.75752e-06
 Reference value :  1.75856e-06
 Reference value :  1.75967e-06
 Reference value :  1.76081e-06
 Reference value :  1.76250e-06
 Reference value :  1.76459e-06
 Reference value :  1.76721e-06
 Reference value :  1.77082e-06
 Reference value :  1.77536e-06
 Reference value :  1.78444e-06
 Reference value :  1.79865e-06
 Reference value :  1.82706e-06
 Reference value :  1.88389e-06
 Reference value :  1.99754e-06
 Reference value :  2.00000e-06
 Reference value :  2.00001e-06
 Reference value :  2.00003e-06
 Reference value :  2.00007e-06
 Reference value :  2.00010e-06
 Reference value :  2.00010e-06
 Reference value :  2.00011e-06
 Reference value :  2.00013e-06
 Reference value :  2.00017e-06
 Reference value :  2.00023e-06
 Reference value :  2.00037e-06
 Reference value :  2.00057e-06
 Reference value :  2.00093e-06
 Reference value :  2.00145e-06
 Reference value :  2.00198e-06
 Reference value :  2.00262e-06
 Reference value :  2.00338e-06
 Reference value :  2.00415e-06
 Reference value :  2.00498e-06
 Reference value :  2.00570e-06
 Reference value :  2.00649e-06
 Reference value :  2.00720e-06
 Reference value :  2.00804e-06
 Reference value :  2.00883e-06
 Reference value :  2.00991e-06
 Reference value :  2.01108e-06
 Reference value :  2.01313e-06
 Reference value :  2.01599e-06
 Reference value :  2.01790e-06
 Reference value :  2.02002e-06
 Reference value :  2.02198e-06
 Reference value :  2.02344e-06
 Reference value :  2.02481e-06
 Reference value :  2.02604e-06
 Reference value :  2.02741e-06
 Reference value :  2.02904e-06
 Reference value :  2.03100e-06
 Reference value :  2.03376e-06
 Reference value :  2.03718e-06
 Reference value :  2.04402e-06
 Reference value :  2.05447e-06
 Reference value :  2.06905e-06
 Reference value :  2.09400e-06
 Reference value :  2.12821e-06
 Reference value :  2.16609e-06
 Reference value :  2.21153e-06
 Reference value :  2.25010e-06
 Reference value :  2.25011e-06
 Reference value :  2.25013e-06
 Reference value :  2.25017e-06
 Reference value :  2.25020e-06
 Reference value :  2.25020e-06
 Reference value :  2.25020e-06
 Reference value :  2.25021e-06
 Reference value :  2.25021e-06
 Reference value :  2.25022e-06
 Reference value :  2.25025e-06
 Reference value :  2.25029e-06
 Reference value :  2.25039e-06
 Reference value :  2.25057e-06
 Reference value :  2.25090e-06
 Reference value :  2.25155e-06
 Reference value :  2.25214e-06
 Reference value :  2.25278e-06
 Reference value :  2.25348e-06
 Reference value :  2.25440e-06
 Reference value :  2.25513e-06
 Reference value :  2.25597e-06
 Reference value :  2.25683e-06
 Reference value :  2.25773e-06
 Reference value :  2.25891e-06
 Reference value :  2.26080e-06
 Reference value :  2.26323e-06
 Reference value :  2.26631e-06
 Reference value :  2.27062e-06
 Reference value :  2.27740e-06
 Reference value :  2.29095e-06
 Reference value :  2.31807e-06
 Reference value :  2.37229e-06
 Reference value :  2.42509e-06
 Reference value :  2.48783e-06
 Reference value :  2.50000e-06
 Reference value :  2.50001e-06
 Reference value :  2.50003e-06
 Reference value :  2.50007e-06
 Reference value :  2.50010e-06
 Reference value :  2.50010e-06
 Reference value :  2.50011e-06
 Reference value :  2.50013e-06
 Reference value :  2.50017e-06
 Reference value :  2.50023e-06
 Reference value :  2.50037e-06
 Reference value :  2.50057e-06
 Reference value :  2.50093e-06
 Reference value :  2.50145e-06
 Reference value :  2.50198e-06
 Reference value :  2.50259e-06
 Reference value :  2.50330e-06
 Reference value :  2.50406e-06
 Reference value :  2.50498e-06
 Reference value :  2.50590e-06
 Reference value :  2.50689e-06
 Reference value :  2.50813e-06
 Reference value :  2.50934e-06
 Reference value :  2.51064e-06
 Reference value :  2.51197e-06
 Reference value :  2.51359e-06
 Reference value :  2.51494e-06
 Reference value :  2.51651e-06
 Reference value :  2.51804e-06
 Reference value :  2.51982e-06
 Reference value :  2.52336e-06
 Reference value :  2.52926e-06
 Reference value :  2.53973e-06
 Reference value :  2.56069e-06
 Reference value :  2.60259e-06
 Reference value :  2.68639e-06
 Reference value :  2.75010e-06
 Reference value :  2.75011e-06
 Reference value :  2.75013e-06
 Reference value :  2.75017e-06
 Reference value :  2.75020e-06
 Reference value :  2.75020e-06
 Reference value :  2.75020e-06
 Reference value :  2.75021e-06
 Reference value :  2.75021e-06
 Reference value :  2.75022e-06
 Reference value :  2.75025e-06
 Reference value :  2.75029e-06
 Reference value :  2.75039e-06
 Reference value :  2.75057e-06
 Reference value :  2.75090e-06
 Reference value :  2.75156e-06
 Reference value :  2.75215e-06
 Reference value :  2.75278e-06
 Reference value :  2.75349e-06
 Reference value :  2.75440e-06
 Reference value :  2.75514e-06
 Reference value :  2.75598e-06
 Reference value :  2.75670e-06
 Reference value :  2.75751e-06
 Reference value :  2.75854e-06
 Reference value :  2.75965e-06
 Reference value :  2.76076e-06
 Reference value :  2.76249e-06
 Reference value :  2.76448e-06
 Reference value :  2.76718e-06
 Reference value :  2.77068e-06
 Reference value :  2.77526e-06
 Reference value :  2.78443e-06
 Reference value :  2.79763e-06
 Reference value :  2.82405e-06
 Reference value :  2.87689e-06
 Reference value :  2.98256e-06
 Reference value :  3.00000e-06
 Reference value :  3.00001e-06
 Reference value :  3.00003e-06
 Reference value :  3.00007e-06
 Reference value :  3.00010e-06
 Reference value :  3.00010e-06
 Reference value :  3.00011e-06
 Reference value :  3.00013e-06
 Reference value :  3.00017e-06
 Reference value :  3.00023e-06
 Reference value :  3.00037e-06
 Reference value :  3.00057e-06
 Reference value :  3.00093e-06
 Reference value :  3.00145e-06
 Reference value :  3.00198e-06
 Reference value :  3.00262e-06
 Reference value :  3.00338e-06
 Reference value :  3.00415e-06
 Reference value :  3.00498e-06
 Reference value :  3.00572e-06
 Reference value :  3.00650e-06
 Reference value :  3.00723e-06
 Reference value :  3.00806e-06
 Reference value :  3.00887e-06
 Reference value :  3.00995e-06
 Reference value :  3.01115e-06
 Reference value :  3.01296e-06
 Reference value :  3.01491e-06
 Reference value :  3.01658e-06
 Reference value :  3.01831e-06
 Reference value :  3.02019e-06
 Reference value :  3.02172e-06
 Reference value :  3.02324e-06
 Reference value :  3.02505e-06
 Reference value :  3.02677e-06
 Reference value :  3.02832e-06
 Reference value :  3.03043e-06
 Reference value :  3.03314e-06
 Reference value :  3.03595e-06
 Reference value :  3.04082e-06
 Reference value :  3.04732e-06
 Reference value :  3.05759e-06
 Reference value :  3.07414e-06
 Reference value :  3.09923e-06
 Reference value :  3.12481e-06
 Reference value :  3.15192e-06
 Reference value :  3.18631e-06
 Reference value :  3.21253e-06
 Reference value :  3.23670e-06
 Reference value :  3.25010e-06
 Reference value :  3.25011e-06
 Reference value :  3.25013e-06
 Reference value :  3.25017e-06
 Reference value :  3.25020e-06
 Reference value :  3.25020e-06
 Reference value :  3.25020e-06
 Reference value :  3.25021e-06
 Reference value :  3.25021e-06
 Reference value :  3.25022e-06
 Reference value :  3.25025e-06
 Reference value :  3.25029e-06
 Reference value :  3.25039e-06
 Reference value :  3.25058e-06
 Reference value :  3.25091e-06
 Reference value :  3.25157e-06
 Reference value :  3.25217e-06
 Reference value :  3.25281e-06
 Reference value :  3.25352e-06
 Reference value :  3.25441e-06
 Reference value :  3.25514e-06
 Reference value :  3.25597e-06
 Reference value :  3.25681e-06
 Reference value :  3.25770e-06
 Reference value :  3.25889e-06
 Reference value :  3.26069e-06
 Reference value :  3.26318e-06
 Reference value :  3.26619e-06
 Reference value :  3.27052e-06
 Reference value :  3.27697e-06
 Reference value :  3.28987e-06
 Reference value :  3.31566e-06
 Reference value :  3.36724e-06
 Reference value :  3.47041e-06
 Reference value :  3.50000e-06
 Reference value :  3.50001e-06
 Reference value :  3.50003e-06
 Reference value :  3.50007e-06
 Reference value :  3.50010e-06
 Reference value :  3.50010e-06
 Reference value :  3.50011e-06
 Reference value :  3.50013e-06
 Reference value :  3.50016e-06
 Reference value :  3.50023e-06
 Reference value :  3.50037e-06
 Reference value :  3.50057e-06
 Reference value :  3.50093e-06
 Reference value :  3.50143e-06
 Reference value :  3.50196e-06
 Reference value :  3.50260e-06
 Reference value :  3.50337e-06
 Reference value :  3.50412e-06
 Reference value :  3.50493e-06
 Reference value :  3.50582e-06
 Reference value :  3.50674e-06
 Reference value :  3.50783e-06
 Reference value :  3.50918e-06
 Reference value :  3.51037e-06
 Reference value :  3.51164e-06
 Reference value :  3.51346e-06
 Reference value :  3.51493e-06
 Reference value :  3.51654e-06
 Reference value :  3.51812e-06
 Reference value :  3.51996e-06
 Reference value :  3.52350e-06
 Reference value :  3.52857e-06
 Reference value :  3.53871e-06
 Reference value :  3.55900e-06
 Reference value :  3.59957e-06
 Reference value :  3.68072e-06
 Reference value :  3.75010e-06
 Reference value :  3.75011e-06
 Reference value :  3.75013e-06
 Reference value :  3.75017e-06
 Reference value :  3.75020e-06
 Reference value :  3.75020e-06
 Reference value :  3.75020e-06
 Reference value :  3.75021e-06
 Reference value :  3.75021e-06
 Reference value :  3.75022e-06
 Reference value :  3.75025e-06
 Reference value :  3.75029e-06
 Reference value :  3.75039e-06
 Reference value :  3.75057e-06
 Reference value :  3.75090e-06
 Reference value :  3.75156e-06
 Reference value :  3.75215e-06
 Reference value :  3.75279e-06
 Reference value :  3.75349e-06
 Reference value :  3.75440e-06
 Reference value :  3.75514e-06
 Reference value :  3.75597e-06
 Reference value :  3.75669e-06
 Reference value :  3.75749e-06
 Reference value :  3.75852e-06
 Reference value :  3.75962e-06
 Reference value :  3.76182e-06
 Reference value :  3.76413e-06
 Reference value :  3.76819e-06
 Reference value :  3.77254e-06
 Reference value :  3.78123e-06
 Reference value :  3.79862e-06
 Reference value :  3.83339e-06
 Reference value :  3.90294e-06
 Reference value :  4.00000e-06
 Reference value :  4.00001e-06
 Reference value :  4.00003e-06
 Reference value :  4.00007e-06
 Reference value :  4.00010e-06
 Reference value :  4.00010e-06
 Reference value :  4.00011e-06
 Reference value :  4.00013e-06
 Reference value :  4.00016e-06
 Reference value :  4.00023e-06
 Reference value :  4.00037e-06
 Reference value :  4.00057e-06
 Reference value :  4.00093e-06
 Reference value :  4.00143e-06
 Reference value :  4.00196e-06
 Reference value :  4.00260e-06
 Reference value :  4.00337e-06
 Reference value :  4.00412e-06
 Reference value :  4.00497e-06
 Reference value :  4.00572e-06
 Reference value :  4.00654e-06
 Reference value :  4.00744e-06
 Reference value :  4.00836e-06
 Reference value :  4.00934e-06
 Reference value :  4.01064e-06
 Reference value :  4.01218e-06
 Reference value :  4.01457e-06
 Reference value :  4.01792e-06
 Reference value :  4.02025e-06
 Reference value :  4.02227e-06
 Reference value :  4.02419e-06
 Reference value :  4.02611e-06
 Reference value :  4.02794e-06
 Reference value :  4.03024e-06
 Reference value :  4.03235e-06
 Reference value :  4.03535e-06
 Reference value :  4.03874e-06
 Reference value :  4.04395e-06
 Reference value :  4.04983e-06
 Reference value :  4.05684e-06
 Reference value :  4.06193e-06
 Reference value :  4.06745e-06
 Reference value :  4.07387e-06
 Reference value :  4.08079e-06
 Reference value :  4.08886e-06
 Reference value :  4.09776e-06
 Reference value :  4.10584e-06
 Reference value :  4.12202e-06
 Reference value :  4.14425e-06
 Reference value :  4.17911e-06
 Reference value :  4.22693e-06
 Reference value :  4.25010e-06
 Reference value :  4.25011e-06
 Reference value :  4.25013e-06
 Reference value :  4.25017e-06
 Reference value :  4.25020e-06
 Reference value :  4.25020e-06
 Reference value :  4.25020e-06
 Reference value :  4.25021e-06
 Reference value :  4.25021e-06
 Reference value :  4.25022e-06
 Reference value :  4.25025e-06
 Reference value :  4.25029e-06
 Reference value :  4.25039e-06
 Reference value :  4.25058e-06
 Reference value :  4.25091e-06
 Reference value :  4.25157e-06
 Reference value :  4.25217e-06
 Reference value :  4.25282e-06
 Reference value :  4.25352e-06
 Reference value :  4.25442e-06
 Reference value :  4.25512e-06
 Reference value :  4.25592e-06
 Reference value :  4.25677e-06
 Reference value :  4.25766e-06
 Reference value :  4.25881e-06
 Reference value :  4.26073e-06
 Reference value :  4.26320e-06
 Reference value :  4.26623e-06
 Reference value :  4.27055e-06
 Reference value :  4.27692e-06
 Reference value :  4.28964e-06
 Reference value :  4.31508e-06
 Reference value :  4.36597e-06
 Reference value :  4.46775e-06
 Reference value :  4.50000e-06
 Reference value :  4.50001e-06
 Reference value :  4.50003e-06
 Reference value :  4.50007e-06
 Reference value :  4.50010e-06
 Reference value :  4.50010e-06
 Reference value :  4.50011e-06
 Reference value :  4.50013e-06
 Reference value :  4.50016e-06
 Reference value :  4.50023e-06
 Reference value :  4.50037e-06
 Reference value :  4.50057e-06
 Reference value :  4.50093e-06
 Reference value :  4.50143e-06
 Reference value :  4.50196e-06
 Reference value :  4.50256e-06
 Reference value :  4.50327e-06
 Reference value :  4.50402e-06
 Reference value :  4.50494e-06
 Reference value :  4.50583e-06
 Reference value :  4.50683e-06
 Reference value :  4.50798e-06
 Reference value :  4.50916e-06
 Reference value :  4.51038e-06
 Reference value :  4.51164e-06
 Reference value :  4.51326e-06
 Reference value :  4.51469e-06
 Reference value :  4.51622e-06
 Reference value :  4.51787e-06
 Reference value :  4.51974e-06
 Reference value :  4.52317e-06
 Reference value :  4.52820e-06
 Reference value :  4.53818e-06
 Reference value :  4.55723e-06
 Reference value :  4.59391e-06
 Reference value :  4.66728e-06
 Reference value :  4.75010e-06
 Reference value :  4.75011e-06
 Reference value :  4.75013e-06
 Reference value :  4.75017e-06
 Reference value :  4.75020e-06
 Reference value :  4.75020e-06
 Reference value :  4.75020e-06
 Reference value :  4.75021e-06
 Reference value :  4.75021e-06
 Reference value :  4.75022e-06
 Reference value :  4.75025e-06
 Reference value :  4.75029e-06
 Reference value :  4.75039e-06
 Reference value :  4.75057e-06
 Reference value :  4.75090e-06
 Reference value :  4.75155e-06
 Reference value :  4.75215e-06
 Reference value :  4.75278e-06
 Reference value :  4.75348e-06
 Reference value :  4.75440e-06
 Reference value :  4.75514e-06
 Reference value :  4.75598e-06
 Reference value :  4.75671e-06
 Reference value :  4.75751e-06
 Reference value :  4.75855e-06
 Reference value :  4.75965e-06
 Reference value :  4.76079e-06
 Reference value :  4.76247e-06
 Reference value :  4.76455e-06
 Reference value :  4.76718e-06
 Reference value :  4.77076e-06
 Reference value :  4.77530e-06
 Reference value :  4.78436e-06
 Reference value :  4.79843e-06
 Reference value :  4.82656e-06
 Reference value :  4.88281e-06
 Reference value :  4.99533e-06
 Reference value :  5.00000e-06
 Reference value :  5.00001e-06
 Reference value :  5.00003e-06
 Reference value :  5.00007e-06
 Reference value :  5.00010e-06
 Reference value :  5.00010e-06
 Reference value :  5.00011e-06
 Reference value :  5.00013e-06
 Reference value :  5.00017e-06
 Reference value :  5.00023e-06
 Reference value :  5.00037e-06
 Reference value :  5.00057e-06
 Reference value :  5.00093e-06
 Reference value :  5.00145e-06
 Reference value :  5.00197e-06
 Reference value :  5.00261e-06
 Reference value :  5.00338e-06
 Reference value :  5.00414e-06
 Reference value :  5.00497e-06
 Reference value :  5.00569e-06
 Reference value :  5.00648e-06
 Reference value :  5.00720e-06
 Reference value :  5.00804e-06
 Reference value :  5.00891e-06
 Reference value :  5.00998e-06
 Reference value :  5.01133e-06
 Reference value :  5.01335e-06
 Reference value :  5.01466e-06
 Reference value :  5.01619e-06
 Reference value :  5.01789e-06
 Reference value :  5.01958e-06
 Reference value :  5.02134e-06
 Reference value :  5.02290e-06
 Reference value :  5.02452e-06
 Reference value :  5.02590e-06
 Reference value :  5.02739e-06
 Reference value :  5.02920e-06
 Reference value :  5.03117e-06
 Reference value :  5.03392e-06
 Reference value :  5.03729e-06
 Reference value :  5.04350e-06
 Reference value :  5.05251e-06
 Reference value :  5.06596e-06
 Reference value :  5.07873e-06
 Reference value :  5.08985e-06
 Reference value :  5.10225e-06
 Reference value :  5.11934e-06
 Reference value :  5.13818e-06
 Reference value :  5.15753e-06
 Reference value :  5.18052e-06
 Reference value :  5.20608e-06
 Reference value :  5.25010e-06
 Reference value :  5.25011e-06
 Reference value :  5.25013e-06
 Reference value :  5.25017e-06
 Reference value :  5.25020e-06
 Reference value :  5.25020e-06
 Reference value :  5.25020e-06
 Reference value :  5.25021e-06
 Reference value :  5.25021e-06
 Reference value :  5.25022e-06
 Reference value :  5.25025e-06
 Reference value :  5.25029e-06
 Reference value :  5.25039e-06
 Reference value :  5.25058e-06
 Reference value :  5.25091e-06
 Reference value :  5.25157e-06
 Reference value :  5.25218e-06
 Reference value :  5.25282e-06
 Reference value :  5.25353e-06
 Reference value :  5.25443e-06
 Reference value :  5.25514e-06
 Reference value :  5.25595e-06
 Reference value :  5.25681e-06
 Reference value :  5.25769e-06
 Reference value :  5.25885e-06
 Reference value :  5.26074e-06
 Reference value :  5.26319e-06
 Reference value :  5.26623e-06
 Reference value :  5.27053e-06
 Reference value :  5.27707e-06
 Reference value :  5.29014e-06
 Reference value :  5.31630e-06
 Reference value :  5.36860e-06
 Reference value :  5.47321e-06
 Reference value :  5.50000e-06
 Reference value :  5.50001e-06
 Reference value :  5.50003e-06
 Reference value :  5.50007e-06
 Reference value :  5.50010e-06
 Reference value :  5.50010e-06
 Reference value :  5.50011e-06
 Reference value :  5.50013e-06
 Reference value :  5.50016e-06
 Reference value :  5.50023e-06
 Reference value :  5.50037e-06
 Reference value :  5.50057e-06
 Reference value :  5.50093e-06
 Reference value :  5.50143e-06
 Reference value :  5.50196e-06
 Reference value :  5.50256e-06
 Reference value :  5.50328e-06
 Reference value :  5.50402e-06
 Reference value :  5.50495e-06
 Reference value :  5.50586e-06
 Reference value :  5.50685e-06
 Reference value :  5.50811e-06
 Reference value :  5.50926e-06
 Reference value :  5.51067e-06
 Reference value :  5.51201e-06
 Reference value :  5.51360e-06
 Reference value :  5.51529e-06
 Reference value :  5.51707e-06
 Reference value :  5.51916e-06
 Reference value :  5.52270e-06
 Reference value :  5.52786e-06
 Reference value :  5.53730e-06
 Reference value :  5.55461e-06
 Reference value :  5.58584e-06
 Reference value :  5.64693e-06
 Reference value :  5.75010e-06
 Reference value :  5.75011e-06
 Reference value :  5.75013e-06
 Reference value :  5.75017e-06
 Reference value :  5.75020e-06
 Reference value :  5.75020e-06
 Reference value :  5.75020e-06
 Reference value :  5.75021e-06
 Reference value :  5.75021e-06
 Reference value :  5.75022e-06
 Reference value :  5.75025e-06
 Reference value :  5.75029e-06
 Reference value :  5.75039e-06
 Reference value :  5.75058e-06
 Reference value :  5.75091e-06
 Reference value :  5.75158e-06
 Reference value :  5.75218e-06
 Reference value :  5.75283e-06
 Reference value :  5.75353e-06
 Reference value :  5.75443e-06
 Reference value :  5.75515e-06
 Reference value :  5.75596e-06
 Reference value :  5.75668e-06
 Reference value :  5.75747e-06
 Reference value :  5.75849e-06
 Reference value :  5.75957e-06
 Reference value :  5.76066e-06
 Reference value :  5.76241e-06
 Reference value :  5.76423e-06
 Reference value :  5.76708e-06
 Reference value :  5.77035e-06
 Reference value :  5.77499e-06
 Reference value :  5.78413e-06
 Reference value :  5.79603e-06
 Reference value :  5.81948e-06
 Reference value :  5.86429e-06
 Reference value :  5.95107e-06
 Reference value :  6.00000e-06
 Reference value :  6.00001e-06
 Reference value :  6.00003e-06
 Reference value :  6.00007e-06
 Reference value :  6.00010e-06
 Reference value :  6.00010e-06
 Reference value :  6.00011e-06
 Reference value :  6.00013e-06
 Reference value :  6.00017e-06
 Reference value :  6.00023e-06
 Reference value :  6.00037e-06
 Reference value :  6.00057e-06
 Reference value :  6.00093e-06
 Reference value :  6.00145e-06
 Reference value :  6.00198e-06
 Reference value :  6.00262e-06
 Reference value :  6.00338e-06
 Reference value :  6.00415e-06
 Reference value :  6.00498e-06
 Reference value :  6.00571e-06
 Reference value :  6.00649e-06
 Reference value :  6.00722e-06
 Reference value :  6.00805e-06
 Reference value :  6.00896e-06
 Reference value :  6.01001e-06
 Reference value :  6.01161e-06
 Reference value :  6.01350e-06
 Reference value :  6.01487e-06
 Reference value :  6.01640e-06
 Reference value :  6.01805e-06
 Reference value :  6.01997e-06
 Reference value :  6.02176e-06
 Reference value :  6.02326e-06
 Reference value :  6.02485e-06
 Reference value :  6.02619e-06
 Reference value :  6.02766e-06
 Reference value :  6.02941e-06
 Reference value :  6.03155e-06
 Reference value :  6.03418e-06
 Reference value :  6.03782e-06
 Reference value :  6.04428e-06
 Reference value :  6.04944e-06
 Reference value :  6.05559e-06
 Reference value :  6.06204e-06
 Reference value :  6.07228e-06
 Reference value :  6.08609e-06
 Reference value :  6.11207e-06
 Reference value :  6.15504e-06
 Reference value :  6.21659e-06
 Reference value :  6.25010e-06
 Reference value :  6.25011e-06
 Reference value :  6.25013e-06
 Reference value :  6.25017e-06
 Reference value :  6.25020e-06
 Reference value :  6.25020e-06
 Reference value :  6.25020e-06
 Reference value :  6.25021e-06
 Reference value :  6.25021e-06
 Reference value :  6.25022e-06
 Reference value :  6.25025e-06
 Reference value :  6.25029e-06
 Reference value :  6.25039e-06
 Reference value :  6.25058e-06
 Reference value :  6.25091e-06
 Reference value :  6.25157e-06
 Reference value :  6.25218e-06
 Reference value :  6.25282e-06
 Reference value :  6.25353e-06
 Reference value :  6.25442e-06
 Reference value :  6.25513e-06
 Reference value :  6.25594e-06
 Reference value :  6.25678e-06
 Reference value :  6.25766e-06
 Reference value :  6.25882e-06
 Reference value :  6.26065e-06
 Reference value :  6.26317e-06
 Reference value :  6.26613e-06
 Reference value :  6.27047e-06
 Reference value :  6.27676e-06
 Reference value :  6.28934e-06
 Reference value :  6.31450e-06
 Reference value :  6.36482e-06
 Reference value :  6.46546e-06
 Reference value :  6.50000e-06
 Reference value :  6.50001e-06
 Reference value :  6.50003e-06
 Reference value :  6.50007e-06
 Reference value :  6.50010e-06
 Reference value :  6.50010e-06
 Reference value :  6.50011e-06
 Reference value :  6.50013e-06
 Reference value :  6.50016e-06
 Reference value :  6.50023e-06
 Reference value :  6.50037e-06
 Reference value :  6.50057e-06
 Reference value :  6.50093e-06
 Reference value :  6.50144e-06
 Reference value :  6.50196e-06
 Reference value :  6.50256e-06
 Reference value :  6.50328e-06
 Reference value :  6.50403e-06
 Reference value :  6.50495e-06
 Reference value :  6.50585e-06
 Reference value :  6.50684e-06
 Reference value :  6.50798e-06
 Reference value :  6.50929e-06
 Reference value :  6.51052e-06
 Reference value :  6.51179e-06
 Reference value :  6.51355e-06
 Reference value :  6.51522e-06
 Reference value :  6.51686e-06
 Reference value :  6.51890e-06
 Reference value :  6.52113e-06
 Reference value :  6.52485e-06
 Reference value :  6.53031e-06
 Reference value :  6.53978e-06
 Reference value :  6.55683e-06
 Reference value :  6.58683e-06
 Reference value :  6.64335e-06
 Reference value :  6.74660e-06
 Reference value :  6.75010e-06
 Reference value :  6.75011e-06
 Reference value :  6.75013e-06
 Reference value :  6.75017e-06
 Reference value :  6.75020e-06
 Reference value :  6.75020e-06
 Reference value :  6.75020e-06
 Reference value :  6.75021e-06
 Reference value :  6.75021e-06
 Reference value :  6.75022e-06
 Reference value :  6.75025e-06
 Reference value :  6.75029e-06
 Reference value :  6.75039e-06
 Reference value :  6.75058e-06
 Reference value :  6.75091e-06
 Reference value :  6.75158e-06
 Reference value :  6.75219e-06
 Reference value :  6.75283e-06
 Reference value :  6.75353e-06
 Reference value :  6.75443e-06
 Reference value :  6.75514e-06
 Reference value :  6.75596e-06
 Reference value :  6.75667e-06
 Reference value :  6.75746e-06
 Reference value :  6.75848e-06
 Reference value :  6.75956e-06
 Reference value :  6.76064e-06
 Reference value :  6.76240e-06
 Reference value :  6.76417e-06
 Reference value :  6.76707e-06
 Reference value :  6.77029e-06
 Reference value :  6.77496e-06
 Reference value :  6.78365e-06
 Reference value :  6.79504e-06
 Reference value :  6.81653e-06
 Reference value :  6.85760e-06
 Reference value :  6.92984e-06
 Reference value :  7.00000e-06
 Reference value :  7.00001e-06
 Reference value :  7.00003e-06
 Reference value :  7.00007e-06
 Reference value :  7.00010e-06
 Reference value :  7.00010e-06
 Reference value :  7.00011e-06
 Reference value :  7.00013e-06
 Reference value :  7.00017e-06
 Reference value :  7.00023e-06
 Reference value :  7.00037e-06
 Reference value :  7.00057e-06
 Reference value :  7.00093e-06
 Reference value :  7.00145e-06
 Reference value :  7.00198e-06
 Reference value :  7.00262e-06
 Reference value :  7.00338e-06
 Reference value :  7.00415e-06
 Reference value :  7.00498e-06
 Reference value :  7.00569e-06
 Reference value :  7.00648e-06
 Reference value :  7.00720e-06
 Reference value :  7.00804e-06
 Reference value :  7.00895e-06
 Reference value :  7.01000e-06
 Reference value :  7.01146e-06
 Reference value :  7.01345e-06
 Reference value :  7.01489e-06
 Reference value :  7.01648e-06
 Reference value :  7.01809e-06
 Reference value :  7.01988e-06
 Reference value :  7.02155e-06
 Reference value :  7.02280e-06
 Reference value :  7.02398e-06
 Reference value :  7.02522e-06
 Reference value :  7.02657e-06
 Reference value :  7.02808e-06
 Reference value :  7.02955e-06
 Reference value :  7.03198e-06
 Reference value :  7.03450e-06
 Reference value :  7.03823e-06
 Reference value :  7.04219e-06
 Reference value :  7.04789e-06
 Reference value :  7.05505e-06
 Reference value :  7.06878e-06
 Reference value :  7.09443e-06
 Reference value :  7.13919e-06
 Reference value :  7.22681e-06
 Reference value :  7.25010e-06
 Reference value :  7.25011e-06
 Reference value :  7.25013e-06
 Reference value :  7.25017e-06
 Reference value :  7.25020e-06
 Reference value :  7.25020e-06
 Reference value :  7.25020e-06
 Reference value :  7.25021e-06
 Reference value :  7.25021e-06
 Reference value :  7.25022e-06
 Reference value :  7.25025e-06
 Reference value :  7.25029e-06
 Reference value :  7.25039e-06
 Reference value :  7.25057e-06
 Reference value :  7.25091e-06
 Reference value :  7.25156e-06
 Reference value :  7.25216e-06
 Reference value :  7.25280e-06
 Reference value :  7.25351e-06
 Reference value :  7.25441e-06
 Reference value :  7.25511e-06
 Reference value :  7.25592e-06
 Reference value :  7.25678e-06
 Reference value :  7.25766e-06
 Reference value :  7.25881e-06
 Reference value :  7.26077e-06
 Reference value :  7.26322e-06
 Reference value :  7.26625e-06
 Reference value :  7.27057e-06
 Reference value :  7.27716e-06
 Reference value :  7.29035e-06
 Reference value :  7.31673e-06
 Reference value :  7.36948e-06
 Reference value :  7.47498e-06
 Reference value :  7.50000e-06
 Reference value :  7.50001e-06
 Reference value :  7.50003e-06
 Reference value :  7.50007e-06
 Reference value :  7.50010e-06
 Reference value :  7.50010e-06
 Reference value :  7.50011e-06
 Reference value :  7.50013e-06
 Reference value :  7.50016e-06
 Reference value :  7.50023e-06
 Reference value :  7.50037e-06
 Reference value :  7.50056e-06
 Reference value :  7.50092e-06
 Reference value :  7.50151e-06
 Reference value :  7.50204e-06
 Reference value :  7.50267e-06
 Reference value :  7.50337e-06
 Reference value :  7.50418e-06
 Reference value :  7.50501e-06
 Reference value :  7.50596e-06
 Reference value :  7.50694e-06
 Reference value :  7.50812e-06
 Reference value :  7.50933e-06
 Reference value :  7.51058e-06
 Reference value :  7.51186e-06
 Reference value :  7.51351e-06
 Reference value :  7.51495e-06
 Reference value :  7.51648e-06
 Reference value :  7.51814e-06
 Reference value :  7.52001e-06
 Reference value :  7.52342e-06
 Reference value :  7.52838e-06
 Reference value :  7.53822e-06
 Reference value :  7.55690e-06
 Reference value :  7.59277e-06
 Reference value :  7.66450e-06
 Reference value :  7.75010e-06
 Reference value :  7.75011e-06
 Reference value :  7.75013e-06
 Reference value :  7.75017e-06
 Reference value :  7.75020e-06
 Reference value :  7.75020e-06
 Reference value :  7.75020e-06
 Reference value :  7.75021e-06
 Reference value :  7.75021e-06
 Reference value :  7.75022e-06
 Reference value :  7.75025e-06
 Reference value :  7.75029e-06
 Reference value :  7.75039e-06
 Reference value :  7.75057e-06
 Reference value :  7.75091e-06
 Reference value :  7.75157e-06
 Reference value :  7.75217e-06
 Reference value :  7.75281e-06
 Reference value :  7.75352e-06
 Reference value :  7.75442e-06
 Reference value :  7.75512e-06
 Reference value :  7.75592e-06
 Reference value :  7.75664e-06
 Reference value :  7.75742e-06
 Reference value :  7.75845e-06
 Reference value :  7.75955e-06
 Reference value :  7.76064e-06
 Reference value :  7.76240e-06
 Reference value :  7.76423e-06
 Reference value :  7.76707e-06
 Reference value :  7.77039e-06
 Reference value :  7.77502e-06
 Reference value :  7.78418e-06
 Reference value :  7.79608e-06
 Reference value :  7.81958e-06
 Reference value :  7.86418e-06
 Reference value :  7.95052e-06
 Reference value :  8.00000e-06
 Reference value :  8.00001e-06
 Reference value :  8.00003e-06
 Reference value :  8.00007e-06
 Reference value :  8.00010e-06
 Reference value :  8.00010e-06
 Reference value :  8.00011e-06
 Reference value :  8.00013e-06
 Reference value :  8.00017e-06
 Reference value :  8.00023e-06
 Reference value :  8.00037e-06
 Reference value :  8.00057e-06
 Reference value :  8.00093e-06
 Reference value :  8.00151e-06
 Reference value :  8.00205e-06
 Reference value :  8.00270e-06
 Reference value :  8.00347e-06
 Reference value :  8.00429e-06
 Reference value :  8.00514e-06
 Reference value :  8.00596e-06
 Reference value :  8.00670e-06
 Reference value :  8.00741e-06
 Reference value :  8.00823e-06
 Reference value :  8.00915e-06
 Reference value :  8.01026e-06
 Reference value :  8.01210e-06
 Reference value :  8.01414e-06
 Reference value :  8.01564e-06
 Reference value :  8.01732e-06
 Reference value :  8.01892e-06
 Reference value :  8.02085e-06
 Reference value :  8.02282e-06
 Reference value :  8.02494e-06
 Reference value :  8.02671e-06
 Reference value :  8.02901e-06
 Reference value :  8.03129e-06
 Reference value :  8.03555e-06
 Reference value :  8.04068e-06
 Reference value :  8.05092e-06
 Reference value :  8.06698e-06
 Reference value :  8.09540e-06
 Reference value :  8.14180e-06
 Reference value :  8.23314e-06
 Reference value :  8.25010e-06
 Reference value :  8.25011e-06
 Reference value :  8.25013e-06
 Reference value :  8.25017e-06
 Reference value :  8.25020e-06
 Reference value :  8.25020e-06
 Reference value :  8.25020e-06
 Reference value :  8.25021e-06
 Reference value :  8.25021e-06
 Reference value :  8.25022e-06
 Reference value :  8.25025e-06
 Reference value :  8.25029e-06
 Reference value :  8.25039e-06
 Reference value :  8.25058e-06
 Reference value :  8.25096e-06
 Reference value :  8.25160e-06
 Reference value :  8.25223e-06
 Reference value :  8.25289e-06
 Reference value :  8.25360e-06
 Reference value :  8.25448e-06
 Reference value :  8.25544e-06
 Reference value :  8.25666e-06
 Reference value :  8.25800e-06
 Reference value :  8.25944e-06
 Reference value :  8.26193e-06
 Reference value :  8.26450e-06
 Reference value :  8.26848e-06
 Reference value :  8.27326e-06
 Reference value :  8.28282e-06
 Reference value :  8.30194e-06
 Reference value :  8.34018e-06
 Reference value :  8.41666e-06
 Reference value :  8.50000e-06
 Reference value :  8.50001e-06
 Reference value :  8.50003e-06
 Reference value :  8.50007e-06
 Reference value :  8.50010e-06
 Reference value :  8.50010e-06
 Reference value :  8.50011e-06
 Reference value :  8.50013e-06
 Reference value :  8.50016e-06
 Reference value :  8.50023e-06
 Reference value :  8.50037e-06
 Reference value :  8.50064e-06
 Reference value :  8.50112e-06
 Reference value :  8.50178e-06
 Reference value :  8.50246e-06
 Reference value :  8.50309e-06
 Reference value :  8.50384e-06
 Reference value :  8.50451e-06
 Reference value :  8.50531e-06
 Reference value :  8.50617e-06
 Reference value :  8.50712e-06
 Reference value :  8.50861e-06
 Reference value :  8.51022e-06
 Reference value :  8.51166e-06
 Reference value :  8.51315e-06
 Reference value :  8.51507e-06
 Reference value :  8.51766e-06
 Reference value :  8.52054e-06
 Reference value :  8.52631e-06
 Reference value :  8.53192e-06
 Reference value :  8.53713e-06
 Reference value :  8.54094e-06
 Reference value :  8.54456e-06
 Reference value :  8.54809e-06
 Reference value :  8.55059e-06
 Reference value :  8.55325e-06
 Reference value :  8.55649e-06
 Reference value :  8.55979e-06
 Reference value :  8.56286e-06
 Reference value :  8.56731e-06
 Reference value :  8.57334e-06
 Reference value :  8.58129e-06
 Reference value :  8.59354e-06
 Reference value :  8.61069e-06
 Reference value :  8.63334e-06
 Reference value :  8.65639e-06
 Reference value :  8.67994e-06
 Reference value :  8.70469e-06
 Reference value :  8.73325e-06
 Reference value :  8.75010e-06
 Reference value :  8.75011e-06
 Reference value :  8.75013e-06
 Reference value :  8.75017e-06
 Reference value :  8.75020e-06
 Reference value :  8.75020e-06
 Reference value :  8.75020e-06
 Reference value :  8.75021e-06
 Reference value :  8.75021e-06
 Reference value :  8.75022e-06
 Reference value :  8.75025e-06
 Reference value :  8.75029e-06
 Reference value :  8.75039e-06
 Reference value :  8.75058e-06
 Reference value :  8.75096e-06
 Reference value :  8.75163e-06
 Reference value :  8.75224e-06
 Reference value :  8.75291e-06
 Reference value :  8.75361e-06
 Reference value :  8.75449e-06
 Reference value :  8.75517e-06
 Reference value :  8.75596e-06
 Reference value :  8.75686e-06
 Reference value :  8.75777e-06
 Reference value :  8.75887e-06
 Reference value :  8.76107e-06
 Reference value :  8.76354e-06
 Reference value :  8.76674e-06
 Reference value :  8.77111e-06
 Reference value :  8.77874e-06
 Reference value :  8.79401e-06
 Reference value :  8.82177e-06
 Reference value :  8.87728e-06
 Reference value :  8.98831e-06
 Reference value :  9.00000e-06
 Reference value :  9.00001e-06
 Reference value :  9.00003e-06
 Reference value :  9.00007e-06
 Reference value :  9.00010e-06
 Reference value :  9.00010e-06
 Reference value :  9.00011e-06
 Reference value :  9.00013e-06
 Reference value :  9.00016e-06
 Reference value :  9.00023e-06
 Reference value :  9.00037e-06
 Reference value :  9.00057e-06
 Reference value :  9.00095e-06
 Reference value :  9.00154e-06
 Reference value :  9.00209e-06
 Reference value :  9.00275e-06
 Reference value :  9.00346e-06
 Reference value :  9.00425e-06
 Reference value :  9.00509e-06
 Reference value :  9.00590e-06
 Reference value :  9.00698e-06
 Reference value :  9.00802e-06
 Reference value :  9.00990e-06
 Reference value :  9.01223e-06
 Reference value :  9.01445e-06
 Reference value :  9.01683e-06
 Reference value :  9.01901e-06
 Reference value :  9.02170e-06
 Reference value :  9.02439e-06
 Reference value :  9.02926e-06
 Reference value :  9.03674e-06
 Reference value :  9.04845e-06
 Reference value :  9.07179e-06
 Reference value :  9.11030e-06
 Reference value :  9.18268e-06
 Reference value :  9.25010e-06
 Reference value :  9.25011e-06
 Reference value :  9.25013e-06
 Reference value :  9.25017e-06
 Reference value :  9.25020e-06
 Reference value :  9.25020e-06
 Reference value :  9.25020e-06
 Reference value :  9.25021e-06
 Reference value :  9.25021e-06
 Reference value :  9.25022e-06
 Reference value :  9.25025e-06
 Reference value :  9.25029e-06
 Reference value :  9.25039e-06
 Reference value :  9.25058e-06
 Reference value :  9.25096e-06
 Reference value :  9.25157e-06
 Reference value :  9.25219e-06
 Reference value :  9.25284e-06
 Reference value :  9.25354e-06
 Reference value :  9.25445e-06
 Reference value :  9.25517e-06
 Reference value :  9.25600e-06
 Reference value :  9.25672e-06
 Reference value :  9.25752e-06
 Reference value :  9.25856e-06
 Reference value :  9.25952e-06
 Reference value :  9.26052e-06
 Reference value :  9.26174e-06
 Reference value :  9.26307e-06
 Reference value :  9.26518e-06
 Reference value :  9.26767e-06
 Reference value :  9.27132e-06
 Reference value :  9.27635e-06
 Reference value :  9.28353e-06
 Reference value :  9.29396e-06
 Reference value :  9.30894e-06
 Reference value :  9.33086e-06
 Reference value :  9.36275e-06
 Reference value :  9.40940e-06
 Reference value :  9.47776e-06
 Reference value :  9.50000e-06
 Reference value :  9.50001e-06
 Reference value :  9.50003e-06
 Reference value :  9.50007e-06
 Reference value :  9.50010e-06
 Reference value :  9.50010e-06
 Reference value :  9.50011e-06
 Reference value :  9.50013e-06
 Reference value :  9.50016e-06
 Reference value :  9.50023e-06
 Reference value :  9.50037e-06
 Reference value :  9.50057e-06
 Reference value :  9.50095e-06
 Reference value :  9.50154e-06
 Reference value :  9.50209e-06
 Reference value :  9.50276e-06
 Reference value :  9.50352e-06
 Reference value :  9.50439e-06
 Reference value :  9.50526e-06
 Reference value :  9.50610e-06
 Reference value :  9.50687e-06
 Reference value :  9.50761e-06
 Reference value :  9.50845e-06
 Reference value :  9.50939e-06
 Reference value :  9.51054e-06
 Reference value :  9.51242e-06
 Reference value :  9.51475e-06
 Reference value :  9.51645e-06
 Reference value :  9.51833e-06
 Reference value :  9.52033e-06
 Reference value :  9.52203e-06
 Reference value :  9.52334e-06
 Reference value :  9.52456e-06
 Reference value :  9.52575e-06
 Reference value :  9.52704e-06
 Reference value :  9.52858e-06
 Reference value :  9.53051e-06
 Reference value :  9.53318e-06
 Reference value :  9.53650e-06
 Reference value :  9.54312e-06
 Reference value :  9.55368e-06
 Reference value :  9.57138e-06
 Reference value :  9.60313e-06
 Reference value :  9.65528e-06
 Reference value :  9.72950e-06
 Reference value :  9.75010e-06
 Reference value :  9.75011e-06
 Reference value :  9.75013e-06
 Reference value :  9.75017e-06
 Reference value :  9.75020e-06
 Reference value :  9.75020e-06
 Reference value :  9.75020e-06
 Reference value :  9.75021e-06
 Reference value :  9.75021e-06
 Reference value :  9.75022e-06
 Reference value :  9.75025e-06
 Reference value :  9.75029e-06
 Reference value :  9.75039e-06
 Reference value :  9.75058e-06
 Reference value :  9.75091e-06
 Reference value :  9.75156e-06
 Reference value :  9.75216e-06
 Reference value :  9.75279e-06
 Reference value :  9.75350e-06
 Reference value :  9.75439e-06
 Reference value :  9.75513e-06
 Reference value :  9.75596e-06
 Reference value :  9.75682e-06
 Reference value :  9.75771e-06
 Reference value :  9.75890e-06
 Reference value :  9.76073e-06
 Reference value :  9.76320e-06
 Reference value :  9.76624e-06
 Reference value :  9.77056e-06
 Reference value :  9.77713e-06
 Reference value :  9.79027e-06
 Reference value :  9.81654e-06
 Reference value :  9.86910e-06
 Reference value :  9.97420e-06
 Reference value :  1.00000e-05
 Reference value :  1.00000e-05
 Reference value :  1.00000e-05
 Reference value :  1.00001e-05
 Reference value :  1.00001e-05
 Reference value :  1.00001e-05
 Reference value :  1.00001e-05
 Reference value :  1.00001e-05
 Reference value :  1.00002e-05
 Reference value :  1.00002e-05
 Reference value :  1.00004e-05
 Reference value :  1.00006e-05
 Reference value :  1.00009e-05
 Reference value :  1.00014e-05
 Reference value :  1.00020e-05
 Reference value :  1.00026e-05
 Reference value :  1.00033e-05
 Reference value :  1.00040e-05
 Reference value :  1.00050e-05
 Reference value :  1.00059e-05
 Reference value :  1.00068e-05
 Reference value :  1.00081e-05
 Reference value :  1.00094e-05
 Reference value :  1.00107e-05
 Reference value :  1.00120e-05
 Reference value :  1.00137e-05
 Reference value :  1.00151e-05
 Reference value :  1.00167e-05
 Reference value :  1.00182e-05
 Reference value :  1.00200e-05
 Reference value :  1.00236e-05
 Reference value :  1.00293e-05
 Reference value :  1.00397e-05
 Reference value :  1.00601e-05
 Reference value :  1.01009e-05
 Reference value :  1.01824e-05
 Reference value :  1.02501e-05
 Reference value :  1.02501e-05
 Reference value :  1.02501e-05
 Reference value :  1.02502e-05
 Reference value :  1.02502e-05
 Reference value :  1.02502e-05
 Reference value :  1.02502e-05
 Reference value :  1.02502e-05
 Reference value :  1.02502e-05
 Reference value :  1.02502e-05
 Reference value :  1.02502e-05
 Reference value :  1.02503e-05
 Reference value :  1.02504e-05
 Reference value :  1.02506e-05
 Reference value :  1.02509e-05
 Reference value :  1.02516e-05
 Reference value :  1.02521e-05
 Reference value :  1.02528e-05
 Reference value :  1.02535e-05
 Reference value :  1.02544e-05
 Reference value :  1.02551e-05
 Reference value :  1.02560e-05
 Reference value :  1.02567e-05
 Reference value :  1.02575e-05
 Reference value :  1.02586e-05
 Reference value :  1.02597e-05
 Reference value :  1.02608e-05
 Reference value :  1.02625e-05
 Reference value :  1.02646e-05
 Reference value :  1.02672e-05
 Reference value :  1.02708e-05
 Reference value :  1.02753e-05
 Reference value :  1.02844e-05
 Reference value :  1.02985e-05
 Reference value :  1.03267e-05
 Reference value :  1.03831e-05
 Reference value :  1.04959e-05
 Reference value :  1.05000e-05
 Reference value :  1.05000e-05
 Reference value :  1.05000e-05
 Reference value :  1.05001e-05
 Reference value :  1.05001e-05
 Reference value :  1.05001e-05
 Reference value :  1.05001e-05
 Reference value :  1.05001e-05
 Reference value :  1.05002e-05
 Reference value :  1.05002e-05
 Reference value :  1.05004e-05
 Reference value :  1.05006e-05
 Reference value :  1.05009e-05
 Reference value :  1.05014e-05
 Reference value :  1.05020e-05
 Reference value :  1.05026e-05
 Reference value :  1.05034e-05
 Reference value :  1.05041e-05
 Reference value :  1.05050e-05
 Reference value :  1.05057e-05
 Reference value :  1.05065e-05
 Reference value :  1.05072e-05
 Reference value :  1.05080e-05
 Reference value :  1.05088e-05
 Reference value :  1.05099e-05
 Reference value :  1.05111e-05
 Reference value :  1.05131e-05
 Reference value :  1.05160e-05
 Reference value :  1.05179e-05
 Reference value :  1.05200e-05
 Reference value :  1.05220e-05
 Reference value :  1.05234e-05
 Reference value :  1.05248e-05
 Reference value :  1.05260e-05
 Reference value :  1.05274e-05
 Reference value :  1.05290e-05
 Reference value :  1.05310e-05
 Reference value :  1.05338e-05
 Reference value :  1.05372e-05
 Reference value :  1.05440e-05
 Reference value :  1.05544e-05
 Reference value :  1.05690e-05
 Reference value :  1.05939e-05
 Reference value :  1.06282e-05
 Reference value :  1.06661e-05
 Reference value :  1.07115e-05
 Reference value :  1.07501e-05
 Reference value :  1.07501e-05
 Reference value :  1.07501e-05
 Reference value :  1.07502e-05
 Reference value :  1.07502e-05
 Reference value :  1.07502e-05
 Reference value :  1.07502e-05
 Reference value :  1.07502e-05
 Reference value :  1.07502e-05
 Reference value :  1.07502e-05
 Reference value :  1.07502e-05
 Reference value :  1.07503e-05
 Reference value :  1.07504e-05
 Reference value :  1.07506e-05
 Reference value :  1.07509e-05
 Reference value :  1.07515e-05
 Reference value :  1.07521e-05
 Reference value :  1.07528e-05
 Reference value :  1.07535e-05
 Reference value :  1.07544e-05
 Reference value :  1.07551e-05
 Reference value :  1.07560e-05
 Reference value :  1.07568e-05
 Reference value :  1.07577e-05
 Reference value :  1.07589e-05
 Reference value :  1.07608e-05
 Reference value :  1.07632e-05
 Reference value :  1.07663e-05
 Reference value :  1.07706e-05
 Reference value :  1.07774e-05
 Reference value :  1.07909e-05
 Reference value :  1.08177e-05
 Reference value :  1.08712e-05
 Reference value :  1.09240e-05
 Reference value :  1.09870e-05
 Reference value :  1.10000e-05
 Reference value :  1.10000e-05
 Reference value :  1.10000e-05
 Reference value :  1.10001e-05
 Reference value :  1.10001e-05
 Reference value :  1.10001e-05
 Reference value :  1.10001e-05
 Reference value :  1.10001e-05
 Reference value :  1.10002e-05
 Reference value :  1.10002e-05
 Reference value :  1.10004e-05
 Reference value :  1.10006e-05
 Reference value :  1.10009e-05
 Reference value :  1.10014e-05
 Reference value :  1.10020e-05
 Reference value :  1.10026e-05
 Reference value :  1.10033e-05
 Reference value :  1.10041e-05
 Reference value :  1.10050e-05
 Reference value :  1.10059e-05
 Reference value :  1.10069e-05
 Reference value :  1.10081e-05
 Reference value :  1.10093e-05
 Reference value :  1.10106e-05
 Reference value :  1.10120e-05
 Reference value :  1.10136e-05
 Reference value :  1.10149e-05
 Reference value :  1.10165e-05
 Reference value :  1.10180e-05
 Reference value :  1.10198e-05
 Reference value :  1.10233e-05
 Reference value :  1.10292e-05
 Reference value :  1.10397e-05
 Reference value :  1.10606e-05
 Reference value :  1.11024e-05
 Reference value :  1.11860e-05
 Reference value :  1.12501e-05
 Reference value :  1.12501e-05
 Reference value :  1.12501e-05
 Reference value :  1.12502e-05
 Reference value :  1.12502e-05
 Reference value :  1.12502e-05
 Reference value :  1.12502e-05
 Reference value :  1.12502e-05
 Reference value :  1.12502e-05
 Reference value :  1.12502e-05
 Reference value :  1.12502e-05
 Reference value :  1.12503e-05
 Reference value :  1.12504e-05
 Reference value :  1.12506e-05
 Reference value :  1.12509e-05
 Reference value :  1.12516e-05
 Reference value :  1.12522e-05
 Reference value :  1.12528e-05
 Reference value :  1.12535e-05
 Reference value :  1.12544e-05
 Reference value :  1.12551e-05
 Reference value :  1.12560e-05
 Reference value :  1.12567e-05
 Reference value :  1.12575e-05
 Reference value :  1.12585e-05
 Reference value :  1.12596e-05
 Reference value :  1.12608e-05
 Reference value :  1.12625e-05
 Reference value :  1.12645e-05
 Reference value :  1.12672e-05
 Reference value :  1.12707e-05
 Reference value :  1.12753e-05
 Reference value :  1.12844e-05
 Reference value :  1.12977e-05
 Reference value :  1.13242e-05
 Reference value :  1.13772e-05
 Reference value :  1.14832e-05
 Reference value :  1.15000e-05
 Reference value :  1.15000e-05
 Reference value :  1.15000e-05
 Reference value :  1.15001e-05
 Reference value :  1.15001e-05
 Reference value :  1.15001e-05
 Reference value :  1.15001e-05
 Reference value :  1.15001e-05
 Reference value :  1.15002e-05
 Reference value :  1.15002e-05
 Reference value :  1.15004e-05
 Reference value :  1.15006e-05
 Reference value :  1.15009e-05
 Reference value :  1.15014e-05
 Reference value :  1.15020e-05
 Reference value :  1.15026e-05
 Reference value :  1.15034e-05
 Reference value :  1.15041e-05
 Reference value :  1.15050e-05
 Reference value :  1.15057e-05
 Reference value :  1.15065e-05
 Reference value :  1.15072e-05
 Reference value :  1.15081e-05
 Reference value :  1.15089e-05
 Reference value :  1.15099e-05
 Reference value :  1.15111e-05
 Reference value :  1.15130e-05
 Reference value :  1.15149e-05
 Reference value :  1.15166e-05
 Reference value :  1.15183e-05
 Reference value :  1.15202e-05
 Reference value :  1.15217e-05
 Reference value :  1.15233e-05
 Reference value :  1.15251e-05
 Reference value :  1.15268e-05
 Reference value :  1.15284e-05
 Reference value :  1.15305e-05
 Reference value :  1.15332e-05
 Reference value :  1.15361e-05
 Reference value :  1.15410e-05
 Reference value :  1.15476e-05
 Reference value :  1.15581e-05
 Reference value :  1.15750e-05
 Reference value :  1.15994e-05
 Reference value :  1.16258e-05
 Reference value :  1.16545e-05
 Reference value :  1.16884e-05
 Reference value :  1.17164e-05
 Reference value :  1.17473e-05
 Reference value :  1.17501e-05
 Reference value :  1.17501e-05
 Reference value :  1.17501e-05
 Reference value :  1.17502e-05
 Reference value :  1.17502e-05
 Reference value :  1.17502e-05
 Reference value :  1.17502e-05
 Reference value :  1.17502e-05
 Reference value :  1.17502e-05
 Reference value :  1.17502e-05
 Reference value :  1.17502e-05
 Reference value :  1.17503e-05
 Reference value :  1.17504e-05
 Reference value :  1.17506e-05
 Reference value :  1.17509e-05
 Reference value :  1.17516e-05
 Reference value :  1.17522e-05
 Reference value :  1.17528e-05
 Reference value :  1.17535e-05
 Reference value :  1.17544e-05
 Reference value :  1.17551e-05
 Reference value :  1.17560e-05
 Reference value :  1.17568e-05
 Reference value :  1.17577e-05
 Reference value :  1.17589e-05
 Reference value :  1.17607e-05
 Reference value :  1.17632e-05
 Reference value :  1.17662e-05
 Reference value :  1.17705e-05
 Reference value :  1.17769e-05
 Reference value :  1.17897e-05
 Reference value :  1.18136e-05
 Reference value :  1.18602e-05
 Reference value :  1.19326e-05
 Reference value :  1.20000e-05
 Reference value :  1.20000e-05
 Reference value :  1.20000e-05
 Reference value :  1.20001e-05
 Reference value :  1.20001e-05
 Reference value :  1.20001e-05
 Reference value :  1.20001e-05
 Reference value :  1.20001e-05
 Reference value :  1.20002e-05
 Reference value :  1.20002e-05
 Reference value :  1.20004e-05
 Reference value :  1.20006e-05
 Reference value :  1.20009e-05
 Reference value :  1.20014e-05
 Reference value :  1.20020e-05
 Reference value :  1.20026e-05
 Reference value :  1.20034e-05
 Reference value :  1.20041e-05
 Reference value :  1.20049e-05
 Reference value :  1.20058e-05
 Reference value :  1.20067e-05
 Reference value :  1.20078e-05
 Reference value :  1.20092e-05
 Reference value :  1.20104e-05
 Reference value :  1.20116e-05
 Reference value :  1.20135e-05
 Reference value :  1.20149e-05
 Reference value :  1.20165e-05
 Reference value :  1.20181e-05
 Reference value :  1.20199e-05
 Reference value :  1.20235e-05
 Reference value :  1.20285e-05
 Reference value :  1.20386e-05
 Reference value :  1.20588e-05
 Reference value :  1.20992e-05
 Reference value :  1.21643e-05
 Reference value :  1.22326e-05
 Reference value :  1.22501e-05
 Reference value :  1.22501e-05
 Reference value :  1.22501e-05
 Reference value :  1.22502e-05
 Reference value :  1.22502e-05
 Reference value :  1.22502e-05
 Reference value :  1.22502e-05
 Reference value :  1.22502e-05
 Reference value :  1.22502e-05
 Reference value :  1.22502e-05
 Reference value :  1.22502e-05
 Reference value :  1.22503e-05
 Reference value :  1.22504e-05
 Reference value :  1.22506e-05
 Reference value :  1.22509e-05
 Reference value :  1.22516e-05
 Reference value :  1.22522e-05
 Reference value :  1.22528e-05
 Reference value :  1.22535e-05
 Reference value :  1.22544e-05
 Reference value :  1.22551e-05
 Reference value :  1.22559e-05
 Reference value :  1.22567e-05
 Reference value :  1.22574e-05
 Reference value :  1.22585e-05
 Reference value :  1.22595e-05
 Reference value :  1.22606e-05
 Reference value :  1.22622e-05
 Reference value :  1.22638e-05
 Reference value :  1.22667e-05
 Reference value :  1.22697e-05
 Reference value :  1.22742e-05
 Reference value :  1.22817e-05
 Reference value :  1.22915e-05
 Reference value :  1.23079e-05
 Reference value :  1.23359e-05
 Reference value :  1.23845e-05
 Reference value :  1.24667e-05
 Reference value :  1.25000e-05
 Reference value :  1.25000e-05
 Reference value :  1.25000e-05
 Reference value :  1.25001e-05
 Reference value :  1.25001e-05
 Reference value :  1.25001e-05
 Reference value :  1.25001e-05
 Reference value :  1.25001e-05
 Reference value :  1.25002e-05
 Reference value :  1.25002e-05
 Reference value :  1.25004e-05
 Reference value :  1.25006e-05
 Reference value :  1.25009e-05
 Reference value :  1.25014e-05
 Reference value :  1.25020e-05
 Reference value :  1.25026e-05
 Reference value :  1.25034e-05
 Reference value :  1.25041e-05
 Reference value :  1.25050e-05
 Reference value :  1.25057e-05
 Reference value :  1.25065e-05
 Reference value :  1.25072e-05
 Reference value :  1.25080e-05
 Reference value :  1.25088e-05
 Reference value :  1.25099e-05
 Reference value :  1.25111e-05
 Reference value :  1.25130e-05
 Reference value :  1.25143e-05
 Reference value :  1.25158e-05
 Reference value :  1.25172e-05
 Reference value :  1.25186e-05
 Reference value :  1.25201e-05
 Reference value :  1.25213e-05
 Reference value :  1.25224e-05
 Reference value :  1.25237e-05
 Reference value :  1.25250e-05
 Reference value :  1.25263e-05
 Reference value :  1.25277e-05
 Reference value :  1.25292e-05
 Reference value :  1.25317e-05
 Reference value :  1.25343e-05
 Reference value :  1.25377e-05
 Reference value :  1.25417e-05
 Reference value :  1.25447e-05
 Reference value :  1.25479e-05
 Reference value :  1.25519e-05
 Reference value :  1.25556e-05
 Reference value :  1.25627e-05
 Reference value :  1.25723e-05
 Reference value :  1.25869e-05
 Reference value :  1.26035e-05
 Reference value :  1.26250e-05
 Reference value :  1.26449e-05
 Reference value :  1.26674e-05
 Reference value :  1.26918e-05
 Reference value :  1.27291e-05
 Reference value :  1.27501e-05
 Reference value :  1.27501e-05
 Reference value :  1.27501e-05
 Reference value :  1.27502e-05
 Reference value :  1.27502e-05
 Reference value :  1.27502e-05
 Reference value :  1.27502e-05
 Reference value :  1.27502e-05
 Reference value :  1.27502e-05
 Reference value :  1.27502e-05
 Reference value :  1.27502e-05
 Reference value :  1.27503e-05
 Reference value :  1.27504e-05
 Reference value :  1.27506e-05
 Reference value :  1.27509e-05
 Reference value :  1.27516e-05
 Reference value :  1.27522e-05
 Reference value :  1.27528e-05
 Reference value :  1.27535e-05
 Reference value :  1.27544e-05
 Reference value :  1.27552e-05
 Reference value :  1.27560e-05
 Reference value :  1.27569e-05
 Reference value :  1.27578e-05
 Reference value :  1.27590e-05
 Reference value :  1.27608e-05
 Reference value :  1.27633e-05
 Reference value :  1.27664e-05
 Reference value :  1.27707e-05
 Reference value :  1.27775e-05
 Reference value :  1.27911e-05
 Reference value :  1.28173e-05
 Reference value :  1.28698e-05
 Reference value :  1.29748e-05
 Reference value :  1.30000e-05
 Reference value :  1.30000e-05
 Reference value :  1.30000e-05
 Reference value :  1.30001e-05
 Reference value :  1.30001e-05
 Reference value :  1.30001e-05
 Reference value :  1.30001e-05
 Reference value :  1.30001e-05
 Reference value :  1.30002e-05
 Reference value :  1.30002e-05
 Reference value :  1.30004e-05
 Reference value :  1.30006e-05
 Reference value :  1.30009e-05
 Reference value :  1.30014e-05
 Reference value :  1.30020e-05
 Reference value :  1.30026e-05
 Reference value :  1.30034e-05
 Reference value :  1.30041e-05
 Reference value :  1.30049e-05
 Reference value :  1.30058e-05
 Reference value :  1.30067e-05
 Reference value :  1.30079e-05
 Reference value :  1.30090e-05
 Reference value :  1.30102e-05
 Reference value :  1.30114e-05
 Reference value :  1.30131e-05
 Reference value :  1.30145e-05
 Reference value :  1.30160e-05
 Reference value :  1.30176e-05
 Reference value :  1.30193e-05
 Reference value :  1.30228e-05
 Reference value :  1.30277e-05
 Reference value :  1.30377e-05
 Reference value :  1.30577e-05
 Reference value :  1.30976e-05
 Reference value :  1.31775e-05
 Reference value :  1.32501e-05
 Reference value :  1.32501e-05
 Reference value :  1.32501e-05
 Reference value :  1.32502e-05
 Reference value :  1.32502e-05
 Reference value :  1.32502e-05
 Reference value :  1.32502e-05
 Reference value :  1.32502e-05
 Reference value :  1.32502e-05
 Reference value :  1.32502e-05
 Reference value :  1.32502e-05
 Reference value :  1.32503e-05
 Reference value :  1.32504e-05
 Reference value :  1.32506e-05
 Reference value :  1.32509e-05
 Reference value :  1.32515e-05
 Reference value :  1.32521e-05
 Reference value :  1.32528e-05
 Reference value :  1.32535e-05
 Reference value :  1.32544e-05
 Reference value :  1.32551e-05
 Reference value :  1.32560e-05
 Reference value :  1.32567e-05
 Reference value :  1.32575e-05
 Reference value :  1.32585e-05
 Reference value :  1.32596e-05
 Reference value :  1.32619e-05
 Reference value :  1.32642e-05
 Reference value :  1.32682e-05
 Reference value :  1.32726e-05
 Reference value :  1.32814e-05
 Reference value :  1.32989e-05
 Reference value :  1.33339e-05
 Reference value :  1.34038e-05
 Reference value :  1.35000e-05
 Reference value :  1.35000e-05
 Reference value :  1.35000e-05
 Reference value :  1.35001e-05
 Reference value :  1.35001e-05
 Reference value :  1.35001e-05
 Reference value :  1.35001e-05
 Reference value :  1.35001e-05
 Reference value :  1.35002e-05
 Reference value :  1.35002e-05
 Reference value :  1.35004e-05
 Reference value :  1.35006e-05
 Reference value :  1.35009e-05
 Reference value :  1.35014e-05
 Reference value :  1.35020e-05
 Reference value :  1.35026e-05
 Reference value :  1.35034e-05
 Reference value :  1.35041e-05
 Reference value :  1.35050e-05
 Reference value :  1.35057e-05
 Reference value :  1.35065e-05
 Reference value :  1.35073e-05
 Reference value :  1.35083e-05
 Reference value :  1.35092e-05
 Reference value :  1.35105e-05
 Reference value :  1.35121e-05
 Reference value :  1.35144e-05
 Reference value :  1.35178e-05
 Reference value :  1.35202e-05
 Reference value :  1.35223e-05
 Reference value :  1.35242e-05
 Reference value :  1.35262e-05
 Reference value :  1.35281e-05
 Reference value :  1.35303e-05
 Reference value :  1.35325e-05
 Reference value :  1.35354e-05
 Reference value :  1.35389e-05
 Reference value :  1.35440e-05
 Reference value :  1.35513e-05
 Reference value :  1.35623e-05
 Reference value :  1.35761e-05
 Reference value :  1.35914e-05
 Reference value :  1.36157e-05
 Reference value :  1.36420e-05
 Reference value :  1.36913e-05
 Reference value :  1.37501e-05
 Reference value :  1.37501e-05
 Reference value :  1.37501e-05
 Reference value :  1.37502e-05
 Reference value :  1.37502e-05
 Reference value :  1.37502e-05
 Reference value :  1.37502e-05
 Reference value :  1.37502e-05
 Reference value :  1.37502e-05
 Reference value :  1.37502e-05
 Reference value :  1.37502e-05
 Reference value :  1.37503e-05
 Reference value :  1.37504e-05
 Reference value :  1.37506e-05
 Reference value :  1.37509e-05
 Reference value :  1.37516e-05
 Reference value :  1.37522e-05
 Reference value :  1.37528e-05
 Reference value :  1.37535e-05
 Reference value :  1.37544e-05
 Reference value :  1.37552e-05
 Reference value :  1.37560e-05
 Reference value :  1.37568e-05
 Reference value :  1.37577e-05
 Reference value :  1.37589e-05
 Reference value :  1.37608e-05
 Reference value :  1.37632e-05
 Reference value :  1.37663e-05
 Reference value :  1.37706e-05
 Reference value :  1.37773e-05
 Reference value :  1.37907e-05
 Reference value :  1.38163e-05
 Reference value :  1.38677e-05
 Reference value :  1.39704e-05
 Reference value :  1.40000e-05
 Reference value :  1.40000e-05
 Reference value :  1.40000e-05
 Reference value :  1.40001e-05
 Reference value :  1.40001e-05
 Reference value :  1.40001e-05
 Reference value :  1.40001e-05
 Reference value :  1.40001e-05
 Reference value :  1.40002e-05
 Reference value :  1.40002e-05
 Reference value :  1.40004e-05
 Reference value :  1.40006e-05
 Reference value :  1.40009e-05
 Reference value :  1.40014e-05
 Reference value :  1.40020e-05
 Reference value :  1.40026e-05
 Reference value :  1.40034e-05
 Reference value :  1.40041e-05
 Reference value :  1.40049e-05
 Reference value :  1.40059e-05
 Reference value :  1.40069e-05
 Reference value :  1.40081e-05
 Reference value :  1.40092e-05
 Reference value :  1.40105e-05
 Reference value :  1.40119e-05
 Reference value :  1.40134e-05
 Reference value :  1.40151e-05
 Reference value :  1.40167e-05
 Reference value :  1.40189e-05
 Reference value :  1.40212e-05
 Reference value :  1.40252e-05
 Reference value :  1.40311e-05
 Reference value :  1.40411e-05
 Reference value :  1.40595e-05
 Reference value :  1.40912e-05
 Reference value :  1.41508e-05
 Reference value :  1.42501e-05
 Reference value :  1.42501e-05
 Reference value :  1.42501e-05
 Reference value :  1.42502e-05
 Reference value :  1.42502e-05
 Reference value :  1.42502e-05
 Reference value :  1.42502e-05
 Reference value :  1.42502e-05
 Reference value :  1.42502e-05
 Reference value :  1.42502e-05
 Reference value :  1.42502e-05
 Reference value :  1.42503e-05
 Reference value :  1.42504e-05
 Reference value :  1.42506e-05
 Reference value :  1.42509e-05
 Reference value :  1.42516e-05
 Reference value :  1.42522e-05
 Reference value :  1.42528e-05
 Reference value :  1.42535e-05
 Reference value :  1.42544e-05
 Reference value :  1.42551e-05
 Reference value :  1.42560e-05
 Reference value :  1.42567e-05
 Reference value :  1.42575e-05
 Reference value :  1.42585e-05
 Reference value :  1.42596e-05
 Reference value :  1.42618e-05
 Reference value :  1.42641e-05
 Reference value :  1.42682e-05
 Reference value :  1.42726e-05
 Reference value :  1.42813e-05
 Reference value :  1.42987e-05
 Reference value :  1.43335e-05
 Reference value :  1.44032e-05
 Reference value :  1.45000e-05
 Reference value :  1.45000e-05
 Reference value :  1.45000e-05
 Reference value :  1.45001e-05
 Reference value :  1.45001e-05
 Reference value :  1.45001e-05
 Reference value :  1.45001e-05
 Reference value :  1.45001e-05
 Reference value :  1.45002e-05
 Reference value :  1.45002e-05
 Reference value :  1.45004e-05
 Reference value :  1.45006e-05
 Reference value :  1.45009e-05
 Reference value :  1.45014e-05
 Reference value :  1.45020e-05
 Reference value :  1.45026e-05
 Reference value :  1.45034e-05
 Reference value :  1.45041e-05
 Reference value :  1.45050e-05
 Reference value :  1.45057e-05
 Reference value :  1.45066e-05
 Reference value :  1.45073e-05
 Reference value :  1.45082e-05
 Reference value :  1.45091e-05
 Reference value :  1.45103e-05
 Reference value :  1.45120e-05
 Reference value :  1.45142e-05
 Reference value :  1.45168e-05
 Reference value :  1.45190e-05
 Reference value :  1.45213e-05
 Reference value :  1.45230e-05
 Reference value :  1.45246e-05
 Reference value :  1.45259e-05
 Reference value :  1.45274e-05
 Reference value :  1.45292e-05
 Reference value :  1.45312e-05
 Reference value :  1.45339e-05
 Reference value :  1.45374e-05
 Reference value :  1.45440e-05
 Reference value :  1.45530e-05
 Reference value :  1.45612e-05
 Reference value :  1.45727e-05
 Reference value :  1.45903e-05
 Reference value :  1.46148e-05
 Reference value :  1.46639e-05
 Reference value :  1.47413e-05
 Reference value :  1.47501e-05
 Reference value :  1.47501e-05
 Reference value :  1.47501e-05
 Reference value :  1.47502e-05
 Reference value :  1.47502e-05
 Reference value :  1.47502e-05
 Reference value :  1.47502e-05
 Reference value :  1.47502e-05
 Reference value :  1.47502e-05
 Reference value :  1.47502e-05
 Reference value :  1.47502e-05
 Reference value :  1.47503e-05
 Reference value :  1.47504e-05
 Reference value :  1.47506e-05
 Reference value :  1.47509e-05
 Reference value :  1.47516e-05
 Reference value :  1.47522e-05
 Reference value :  1.47528e-05
 Reference value :  1.47535e-05
 Reference value :  1.47544e-05
 Reference value :  1.47552e-05
 Reference value :  1.47560e-05
 Reference value :  1.47569e-05
 Reference value :  1.47578e-05
 Reference value :  1.47590e-05
 Reference value :  1.47608e-05
 Reference value :  1.47633e-05
 Reference value :  1.47664e-05
 Reference value :  1.47707e-05
 Reference value :  1.47776e-05
 Reference value :  1.47914e-05
 Reference value :  1.48177e-05
 Reference value :  1.48701e-05
 Reference value :  1.49749e-05
 Reference value :  1.50000e-05
 Reference value :  1.50000e-05
 Reference value :  1.50000e-05
 Reference value :  1.50001e-05
 Reference value :  1.50001e-05
 Reference value :  1.50001e-05
 Reference value :  1.50001e-05
 Reference value :  1.50001e-05
 Reference value :  1.50002e-05
 Reference value :  1.50002e-05
 Reference value :  1.50004e-05
 Reference value :  1.50006e-05
 Reference value :  1.50009e-05
 Reference value :  1.50014e-05
 Reference value :  1.50020e-05
 Reference value :  1.50026e-05
 Reference value :  1.50034e-05
 Reference value :  1.50041e-05
 Reference value :  1.50049e-05
 Reference value :  1.50058e-05
 Reference value :  1.50067e-05
 Reference value :  1.50078e-05
 Reference value :  1.50092e-05
 Reference value :  1.50104e-05
 Reference value :  1.50117e-05
 Reference value :  1.50135e-05
 Reference value :  1.50152e-05
 Reference value :  1.50169e-05
 Reference value :  1.50189e-05
 Reference value :  1.50211e-05
 Reference value :  1.50247e-05
 Reference value :  1.50299e-05
 Reference value :  1.50390e-05
 Reference value :  1.50554e-05
 Reference value :  1.50844e-05
 Reference value :  1.51389e-05
 Reference value :  1.52387e-05
 Reference value :  1.52501e-05
 Reference value :  1.52501e-05
 Reference value :  1.52501e-05
 Reference value :  1.52502e-05
 Reference value :  1.52502e-05
 Reference value :  1.52502e-05
 Reference value :  1.52502e-05
 Reference value :  1.52502e-05
 Reference value :  1.52502e-05
 Reference value :  1.52502e-05
 Reference value :  1.52502e-05
 Reference value :  1.52503e-05
 Reference value :  1.52504e-05
 Reference value :  1.52506e-05
 Reference value :  1.52509e-05
 Reference value :  1.52516e-05
 Reference value :  1.52522e-05
 Reference value :  1.52528e-05
 Reference value :  1.52535e-05
 Reference value :  1.52544e-05
 Reference value :  1.52551e-05
 Reference value :  1.52560e-05
 Reference value :  1.52567e-05
 Reference value :  1.52575e-05
 Reference value :  1.52585e-05
 Reference value :  1.52596e-05
 Reference value :  1.52617e-05
 Reference value :  1.52640e-05
 Reference value :  1.52680e-05
 Reference value :  1.52723e-05
 Reference value :  1.52809e-05
 Reference value :  1.52980e-05
 Reference value :  1.53323e-05
 Reference value :  1.54010e-05
 Reference value :  1.55000e-05
 Reference value :  1.55014e-05
 Reference value :  1.55042e-05
 Reference value :  1.55057e-05
 Reference value :  1.55071e-05
 Reference value :  1.55084e-05
 Reference value :  1.55096e-05
 Reference value :  1.55110e-05
 Reference value :  1.55124e-05
 Reference value :  1.55144e-05
 Reference value :  1.55170e-05
 Reference value :  1.55195e-05
 Reference value :  1.55221e-05
 Reference value :  1.55240e-05
 Reference value :  1.55259e-05
 Reference value :  1.55274e-05
 Reference value :  1.55291e-05
 Reference value :  1.55311e-05
 Reference value :  1.55341e-05
 Reference value :  1.55367e-05
 Reference value :  1.55410e-05
 Reference value :  1.55457e-05
 Reference value :  1.55540e-05
 Reference value :  1.55644e-05
 Reference value :  1.55828e-05
 Reference value :  1.56122e-05
 Reference value :  1.56711e-05
 Reference value :  1.57501e-05
 Reference value :  1.57501e-05
 Reference value :  1.57501e-05
 Reference value :  1.57502e-05
 Reference value :  1.57502e-05
 Reference value :  1.57502e-05
 Reference value :  1.57502e-05
 Reference value :  1.57502e-05
 Reference value :  1.57502e-05
 Reference value :  1.57502e-05
 Reference value :  1.57502e-05
 Reference value :  1.57503e-05
 Reference value :  1.57504e-05
 Reference value :  1.57506e-05
 Reference value :  1.57509e-05
 Reference value :  1.57516e-05
 Reference value :  1.57522e-05
 Reference value :  1.57528e-05
 Reference value :  1.57535e-05
 Reference value :  1.57544e-05
 Reference value :  1.57551e-05
 Reference value :  1.57559e-05
 Reference value :  1.57568e-05
 Reference value :  1.57577e-05
 Reference value :  1.57589e-05
 Reference value :  1.57607e-05
 Reference value :  1.57632e-05
 Reference value :  1.57662e-05
 Reference value :  1.57706e-05
 Reference value :  1.57770e-05
 Reference value :  1.57900e-05
 Reference value :  1.58158e-05
 Reference value :  1.58675e-05
 Reference value :  1.59709e-05
 Reference value :  1.60000e-05
 Reference value :  1.60000e-05
 Reference value :  1.60000e-05
 Reference value :  1.60001e-05
 Reference value :  1.60001e-05
 Reference value :  1.60001e-05
 Reference value :  1.60001e-05
[...]
 Reference value :  2.67750e-04
 Reference value :  2.67750e-04
 Reference value :  2.67751e-04
 Reference value :  2.67751e-04
 Reference value :  2.67752e-04
 Reference value :  2.67752e-04
 Reference value :  2.67753e-04
 Reference value :  2.67753e-04
 Reference value :  2.67754e-04
 Reference value :  2.67755e-04
 Reference value :  2.67756e-04
 Reference value :  2.67757e-04
 Reference value :  2.67758e-04
 Reference value :  2.67759e-04
 Reference value :  2.67761e-04
 Reference value :  2.67763e-04
 Reference value :  2.67766e-04
 Reference value :  2.67771e-04
 Reference value :  2.67777e-04
 Reference value :  2.67790e-04
 Reference value :  2.67817e-04
 Reference value :  2.67869e-04
 Reference value :  2.67974e-04
 Reference value :  2.68000e-04
 Reference value :  2.68000e-04
 Reference value :  2.68000e-04
 Reference value :  2.68000e-04
 Reference value :  2.68000e-04
 Reference value :  2.68000e-04
 Reference value :  2.68000e-04
 Reference value :  2.68000e-04
 Reference value :  2.68000e-04
 Reference value :  2.68000e-04
 Reference value :  2.68000e-04
 Reference value :  2.68001e-04
 Reference value :  2.68001e-04
 Reference value :  2.68001e-04
 Reference value :  2.68002e-04
 Reference value :  2.68003e-04
 Reference value :  2.68003e-04
 Reference value :  2.68004e-04
 Reference value :  2.68005e-04
 Reference value :  2.68006e-04
 Reference value :  2.68007e-04
 Reference value :  2.68008e-04
 Reference value :  2.68009e-04
 Reference value :  2.68010e-04
 Reference value :  2.68012e-04
 Reference value :  2.68013e-04
 Reference value :  2.68015e-04
 Reference value :  2.68016e-04
 Reference value :  2.68018e-04
 Reference value :  2.68020e-04
 Reference value :  2.68023e-04
 Reference value :  2.68028e-04
 Reference value :  2.68038e-04
 Reference value :  2.68057e-04
 Reference value :  2.68094e-04
 Reference value :  2.68167e-04
 Reference value :  2.68250e-04
 Reference value :  2.68250e-04
 Reference value :  2.68250e-04
 Reference value :  2.68250e-04
 Reference value :  2.68250e-04
 Reference value :  2.68250e-04
 Reference value :  2.68250e-04
 Reference value :  2.68250e-04
 Reference value :  2.68250e-04
 Reference value :  2.68250e-04
 Reference value :  2.68250e-04
 Reference value :  2.68250e-04
 Reference value :  2.68250e-04
 Reference value :  2.68251e-04
 Reference value :  2.68251e-04
 Reference value :  2.68252e-04
 Reference value :  2.68252e-04
 Reference value :  2.68253e-04
 Reference value :  2.68253e-04
 Reference value :  2.68254e-04
 Reference value :  2.68255e-04
 Reference value :  2.68256e-04
 Reference value :  2.68257e-04
 Reference value :  2.68258e-04
 Reference value :  2.68259e-04
 Reference value :  2.68260e-04
 Reference value :  2.68261e-04
 Reference value :  2.68262e-04
 Reference value :  2.68265e-04
 Reference value :  2.68267e-04
 Reference value :  2.68271e-04
 Reference value :  2.68275e-04
 Reference value :  2.68284e-04
 Reference value :  2.68299e-04
 Reference value :  2.68327e-04
 Reference value :  2.68384e-04
 Reference value :  2.68498e-04
 Reference value :  2.68500e-04
 Reference value :  2.68500e-04
 Reference value :  2.68500e-04
 Reference value :  2.68500e-04
 Reference value :  2.68500e-04
 Reference value :  2.68500e-04
 Reference value :  2.68500e-04
 Reference value :  2.68500e-04
 Reference value :  2.68500e-04
 Reference value :  2.68500e-04
 Reference value :  2.68500e-04
 Reference value :  2.68501e-04
 Reference value :  2.68501e-04
 Reference value :  2.68501e-04
 Reference value :  2.68502e-04
 Reference value :  2.68503e-04
 Reference value :  2.68503e-04
 Reference value :  2.68504e-04
 Reference value :  2.68505e-04
 Reference value :  2.68506e-04
 Reference value :  2.68506e-04
 Reference value :  2.68507e-04
 Reference value :  2.68508e-04
 Reference value :  2.68509e-04
 Reference value :  2.68510e-04
 Reference value :  2.68511e-04
 Reference value :  2.68513e-04
 Reference value :  2.68515e-04
 Reference value :  2.68516e-04
 Reference value :  2.68518e-04
 Reference value :  2.68520e-04
 Reference value :  2.68522e-04
 Reference value :  2.68523e-04
 Reference value :  2.68525e-04
 Reference value :  2.68526e-04
 Reference value :  2.68528e-04
 Reference value :  2.68530e-04
 Reference value :  2.68533e-04
 Reference value :  2.68535e-04
 Reference value :  2.68539e-04
 Reference value :  2.68545e-04
 Reference value :  2.68555e-04
 Reference value :  2.68564e-04
 Reference value :  2.68576e-04
 Reference value :  2.68587e-04
 Reference value :  2.68595e-04
 Reference value :  2.68603e-04
 Reference value :  2.68610e-04
 Reference value :  2.68617e-04
 Reference value :  2.68632e-04
 Reference value :  2.68648e-04
 Reference value :  2.68674e-04
 Reference value :  2.68710e-04
 Reference value :  2.68750e-04
 Reference value :  2.68750e-04
 Reference value :  2.68750e-04
 Reference value :  2.68750e-04
 Reference value :  2.68750e-04
 Reference value :  2.68750e-04
 Reference value :  2.68750e-04
 Reference value :  2.68750e-04
 Reference value :  2.68750e-04
 Reference value :  2.68750e-04
 Reference value :  2.68750e-04
 Reference value :  2.68750e-04
 Reference value :  2.68750e-04
 Reference value :  2.68751e-04
 Reference value :  2.68751e-04
 Reference value :  2.68752e-04
 Reference value :  2.68752e-04
 Reference value :  2.68753e-04
 Reference value :  2.68754e-04
 Reference value :  2.68754e-04
 Reference value :  2.68755e-04
 Reference value :  2.68756e-04
 Reference value :  2.68757e-04
 Reference value :  2.68758e-04
 Reference value :  2.68759e-04
 Reference value :  2.68761e-04
 Reference value :  2.68763e-04
 Reference value :  2.68766e-04
 Reference value :  2.68771e-04
 Reference value :  2.68777e-04
 Reference value :  2.68790e-04
 Reference value :  2.68816e-04
 Reference value :  2.68868e-04
 Reference value :  2.68971e-04
 Reference value :  2.69000e-04
 Reference value :  2.69000e-04
 Reference value :  2.69000e-04
 Reference value :  2.69000e-04
 Reference value :  2.69000e-04
 Reference value :  2.69000e-04
 Reference value :  2.69000e-04
 Reference value :  2.69000e-04
 Reference value :  2.69000e-04
 Reference value :  2.69000e-04
 Reference value :  2.69000e-04
 Reference value :  2.69001e-04
 Reference value :  2.69001e-04
 Reference value :  2.69001e-04
 Reference value :  2.69002e-04
 Reference value :  2.69003e-04
 Reference value :  2.69003e-04
 Reference value :  2.69004e-04
 Reference value :  2.69005e-04
 Reference value :  2.69006e-04
 Reference value :  2.69007e-04
 Reference value :  2.69008e-04
 Reference value :  2.69009e-04
 Reference value :  2.69010e-04
 Reference value :  2.69012e-04
 Reference value :  2.69013e-04
 Reference value :  2.69015e-04
 Reference value :  2.69016e-04
 Reference value :  2.69018e-04
 Reference value :  2.69020e-04
 Reference value :  2.69024e-04
 Reference value :  2.69029e-04
 Reference value :  2.69038e-04
 Reference value :  2.69056e-04
 Reference value :  2.69089e-04
 Reference value :  2.69155e-04
 Reference value :  2.69250e-04
 Reference value :  2.69250e-04
 Reference value :  2.69250e-04
 Reference value :  2.69250e-04
 Reference value :  2.69250e-04
 Reference value :  2.69250e-04
 Reference value :  2.69250e-04
 Reference value :  2.69250e-04
 Reference value :  2.69250e-04
 Reference value :  2.69250e-04
 Reference value :  2.69250e-04
 Reference value :  2.69250e-04
 Reference value :  2.69250e-04
 Reference value :  2.69251e-04
 Reference value :  2.69251e-04
 Reference value :  2.69252e-04
 Reference value :  2.69252e-04
 Reference value :  2.69253e-04
 Reference value :  2.69253e-04
 Reference value :  2.69254e-04
 Reference value :  2.69255e-04
 Reference value :  2.69256e-04
 Reference value :  2.69257e-04
 Reference value :  2.69257e-04
 Reference value :  2.69259e-04
 Reference value :  2.69260e-04
 Reference value :  2.69262e-04
 Reference value :  2.69264e-04
 Reference value :  2.69268e-04
 Reference value :  2.69273e-04
 Reference value :  2.69281e-04
 Reference value :  2.69299e-04
 Reference value :  2.69333e-04
 Reference value :  2.69403e-04
 Reference value :  2.69500e-04
 Reference value :  2.69500e-04
 Reference value :  2.69500e-04
 Reference value :  2.69500e-04
 Reference value :  2.69500e-04
 Reference value :  2.69500e-04
 Reference value :  2.69500e-04
 Reference value :  2.69500e-04
 Reference value :  2.69500e-04
 Reference value :  2.69500e-04
 Reference value :  2.69500e-04
 Reference value :  2.69501e-04
 Reference value :  2.69501e-04
 Reference value :  2.69501e-04
 Reference value :  2.69502e-04
 Reference value :  2.69503e-04
 Reference value :  2.69503e-04
 Reference value :  2.69504e-04
 Reference value :  2.69505e-04
 Reference value :  2.69506e-04
 Reference value :  2.69507e-04
 Reference value :  2.69507e-04
 Reference value :  2.69508e-04
 Reference value :  2.69509e-04
 Reference value :  2.69510e-04
 Reference value :  2.69512e-04
 Reference value :  2.69514e-04
 Reference value :  2.69517e-04
 Reference value :  2.69519e-04
 Reference value :  2.69521e-04
 Reference value :  2.69523e-04
 Reference value :  2.69525e-04
 Reference value :  2.69526e-04
 Reference value :  2.69527e-04
 Reference value :  2.69529e-04
 Reference value :  2.69531e-04
 Reference value :  2.69534e-04
 Reference value :  2.69537e-04
 Reference value :  2.69544e-04
 Reference value :  2.69553e-04
 Reference value :  2.69562e-04
 Reference value :  2.69580e-04
 Reference value :  2.69597e-04
 Reference value :  2.69629e-04
 Reference value :  2.69687e-04
 Reference value :  2.69750e-04
 Reference value :  2.69750e-04
 Reference value :  2.69750e-04
 Reference value :  2.69750e-04
 Reference value :  2.69750e-04
 Reference value :  2.69750e-04
 Reference value :  2.69750e-04
 Reference value :  2.69750e-04
 Reference value :  2.69750e-04
 Reference value :  2.69750e-04
 Reference value :  2.69750e-04
 Reference value :  2.69750e-04
 Reference value :  2.69750e-04
 Reference value :  2.69751e-04
 Reference value :  2.69751e-04
 Reference value :  2.69752e-04
 Reference value :  2.69752e-04
 Reference value :  2.69753e-04
 Reference value :  2.69754e-04
 Reference value :  2.69754e-04
 Reference value :  2.69755e-04
 Reference value :  2.69756e-04
 Reference value :  2.69757e-04
 Reference value :  2.69758e-04
 Reference value :  2.69759e-04
 Reference value :  2.69761e-04
 Reference value :  2.69763e-04
 Reference value :  2.69766e-04
 Reference value :  2.69771e-04
 Reference value :  2.69777e-04
 Reference value :  2.69790e-04
 Reference value :  2.69816e-04
 Reference value :  2.69868e-04
 Reference value :  2.69971e-04
 Reference value :  2.70000e-04
 Reference value :  2.70000e-04
 Reference value :  2.70000e-04
 Reference value :  2.70000e-04
 Reference value :  2.70000e-04
 Reference value :  2.70000e-04
 Reference value :  2.70000e-04
 Reference value :  2.70000e-04
 Reference value :  2.70000e-04
 Reference value :  2.70000e-04
 Reference value :  2.70000e-04
 Reference value :  2.70001e-04
 Reference value :  2.70001e-04
 Reference value :  2.70001e-04
 Reference value :  2.70002e-04
 Reference value :  2.70003e-04
 Reference value :  2.70003e-04
 Reference value :  2.70004e-04
 Reference value :  2.70005e-04
 Reference value :  2.70006e-04
 Reference value :  2.70007e-04
 Reference value :  2.70008e-04
 Reference value :  2.70009e-04
 Reference value :  2.70010e-04
 Reference value :  2.70012e-04
 Reference value :  2.70014e-04
 Reference value :  2.70015e-04
 Reference value :  2.70017e-04
 Reference value :  2.70019e-04
 Reference value :  2.70021e-04
 Reference value :  2.70025e-04
 Reference value :  2.70030e-04
 Reference value :  2.70039e-04
 Reference value :  2.70055e-04
 Reference value :  2.70084e-04
 Reference value :  2.70138e-04
 Reference value :  2.70238e-04
 Reference value :  2.70250e-04
 Reference value :  2.70250e-04
 Reference value :  2.70250e-04
 Reference value :  2.70250e-04
 Reference value :  2.70250e-04
 Reference value :  2.70250e-04
 Reference value :  2.70250e-04
 Reference value :  2.70250e-04
 Reference value :  2.70250e-04
 Reference value :  2.70250e-04
 Reference value :  2.70250e-04
 Reference value :  2.70250e-04
 Reference value :  2.70250e-04
 Reference value :  2.70251e-04
 Reference value :  2.70251e-04
 Reference value :  2.70252e-04
 Reference value :  2.70252e-04
 Reference value :  2.70253e-04
 Reference value :  2.70254e-04
 Reference value :  2.70254e-04
 Reference value :  2.70255e-04
 Reference value :  2.70256e-04
 Reference value :  2.70257e-04
 Reference value :  2.70257e-04
 Reference value :  2.70258e-04
 Reference value :  2.70260e-04
 Reference value :  2.70262e-04
 Reference value :  2.70264e-04
 Reference value :  2.70268e-04
 Reference value :  2.70272e-04
 Reference value :  2.70281e-04
 Reference value :  2.70298e-04
 Reference value :  2.70332e-04
 Reference value :  2.70401e-04
 Reference value :  2.70500e-04
 Reference value :  2.70500e-04
 Reference value :  2.70500e-04
 Reference value :  2.70500e-04
 Reference value :  2.70500e-04
 Reference value :  2.70500e-04
 Reference value :  2.70500e-04
 Reference value :  2.70500e-04
 Reference value :  2.70500e-04
 Reference value :  2.70500e-04
 Reference value :  2.70500e-04
 Reference value :  2.70501e-04
 Reference value :  2.70501e-04
 Reference value :  2.70501e-04
 Reference value :  2.70502e-04
 Reference value :  2.70503e-04
 Reference value :  2.70503e-04
 Reference value :  2.70504e-04
 Reference value :  2.70505e-04
 Reference value :  2.70506e-04
 Reference value :  2.70507e-04
 Reference value :  2.70507e-04
 Reference value :  2.70508e-04
 Reference value :  2.70509e-04
 Reference value :  2.70510e-04
 Reference value :  2.70512e-04
 Reference value :  2.70514e-04
 Reference value :  2.70517e-04
 Reference value :  2.70519e-04
 Reference value :  2.70522e-04
 Reference value :  2.70524e-04
 Reference value :  2.70525e-04
 Reference value :  2.70527e-04
 Reference value :  2.70528e-04
 Reference value :  2.70530e-04
 Reference value :  2.70533e-04
 Reference value :  2.70535e-04
 Reference value :  2.70540e-04
 Reference value :  2.70544e-04
 Reference value :  2.70552e-04
 Reference value :  2.70561e-04
 Reference value :  2.70578e-04
 Reference value :  2.70604e-04
 Reference value :  2.70657e-04
 Reference value :  2.70747e-04
 Reference value :  2.70750e-04
 Reference value :  2.70750e-04
 Reference value :  2.70750e-04
 Reference value :  2.70750e-04
 Reference value :  2.70750e-04
 Reference value :  2.70750e-04
 Reference value :  2.70750e-04
 Reference value :  2.70750e-04
 Reference value :  2.70750e-04
 Reference value :  2.70750e-04
 Reference value :  2.70750e-04
 Reference value :  2.70750e-04
 Reference value :  2.70750e-04
 Reference value :  2.70751e-04
 Reference value :  2.70751e-04
 Reference value :  2.70752e-04
 Reference value :  2.70752e-04
 Reference value :  2.70753e-04
 Reference value :  2.70754e-04
 Reference value :  2.70754e-04
 Reference value :  2.70755e-04
 Reference value :  2.70756e-04
 Reference value :  2.70757e-04
 Reference value :  2.70758e-04
 Reference value :  2.70759e-04
 Reference value :  2.70761e-04
 Reference value :  2.70763e-04
 Reference value :  2.70766e-04
 Reference value :  2.70771e-04
 Reference value :  2.70777e-04
 Reference value :  2.70790e-04
 Reference value :  2.70816e-04
 Reference value :  2.70867e-04
 Reference value :  2.70970e-04
 Reference value :  2.71000e-04
 Reference value :  2.71000e-04
 Reference value :  2.71000e-04
 Reference value :  2.71000e-04
 Reference value :  2.71000e-04
 Reference value :  2.71000e-04
 Reference value :  2.71000e-04
 Reference value :  2.71000e-04
 Reference value :  2.71000e-04
 Reference value :  2.71000e-04
 Reference value :  2.71000e-04
 Reference value :  2.71001e-04
 Reference value :  2.71001e-04
 Reference value :  2.71001e-04
 Reference value :  2.71002e-04
 Reference value :  2.71003e-04
 Reference value :  2.71003e-04
 Reference value :  2.71004e-04
 Reference value :  2.71005e-04
 Reference value :  2.71006e-04
 Reference value :  2.71007e-04
 Reference value :  2.71008e-04
 Reference value :  2.71009e-04
 Reference value :  2.71011e-04
 Reference value :  2.71012e-04
 Reference value :  2.71013e-04
 Reference value :  2.71015e-04
 Reference value :  2.71016e-04
 Reference value :  2.71018e-04
 Reference value :  2.71020e-04
 Reference value :  2.71023e-04
 Reference value :  2.71028e-04
 Reference value :  2.71038e-04
 Reference value :  2.71057e-04
 Reference value :  2.71094e-04
 Reference value :  2.71167e-04
 Reference value :  2.71250e-04
 Reference value :  2.71250e-04
 Reference value :  2.71250e-04
 Reference value :  2.71250e-04
 Reference value :  2.71250e-04
 Reference value :  2.71250e-04
 Reference value :  2.71250e-04
 Reference value :  2.71250e-04
 Reference value :  2.71250e-04
 Reference value :  2.71250e-04
 Reference value :  2.71250e-04
 Reference value :  2.71250e-04
 Reference value :  2.71250e-04
 Reference value :  2.71251e-04
 Reference value :  2.71251e-04
 Reference value :  2.71252e-04
 Reference value :  2.71252e-04
 Reference value :  2.71253e-04
 Reference value :  2.71254e-04
 Reference value :  2.71254e-04
 Reference value :  2.71255e-04
 Reference value :  2.71256e-04
 Reference value :  2.71257e-04
 Reference value :  2.71257e-04
 Reference value :  2.71258e-04
 Reference value :  2.71260e-04
 Reference value :  2.71262e-04
 Reference value :  2.71264e-04
 Reference value :  2.71268e-04
 Reference value :  2.71272e-04
 Reference value :  2.71281e-04
 Reference value :  2.71298e-04
 Reference value :  2.71333e-04
 Reference value :  2.71402e-04
 Reference value :  2.71500e-04
 Reference value :  2.71500e-04
 Reference value :  2.71500e-04
 Reference value :  2.71500e-04
 Reference value :  2.71500e-04
 Reference value :  2.71500e-04
 Reference value :  2.71500e-04
 Reference value :  2.71500e-04
 Reference value :  2.71500e-04
 Reference value :  2.71500e-04
 Reference value :  2.71500e-04
 Reference value :  2.71501e-04
 Reference value :  2.71501e-04
 Reference value :  2.71501e-04
 Reference value :  2.71502e-04
 Reference value :  2.71503e-04
 Reference value :  2.71503e-04
 Reference value :  2.71504e-04
 Reference value :  2.71505e-04
 Reference value :  2.71506e-04
 Reference value :  2.71507e-04
 Reference value :  2.71507e-04
 Reference value :  2.71508e-04
 Reference value :  2.71509e-04
 Reference value :  2.71510e-04
 Reference value :  2.71512e-04
 Reference value :  2.71514e-04
 Reference value :  2.71517e-04
 Reference value :  2.71520e-04
 Reference value :  2.71523e-04
 Reference value :  2.71525e-04
 Reference value :  2.71528e-04
 Reference value :  2.71534e-04
 Reference value :  2.71542e-04
 Reference value :  2.71554e-04
 Reference value :  2.71577e-04
 Reference value :  2.71621e-04
 Reference value :  2.71710e-04
 Reference value :  2.71750e-04
 Reference value :  2.71750e-04
 Reference value :  2.71750e-04
 Reference value :  2.71750e-04
 Reference value :  2.71750e-04
 Reference value :  2.71750e-04
 Reference value :  2.71750e-04
 Reference value :  2.71750e-04
 Reference value :  2.71750e-04
 Reference value :  2.71750e-04
 Reference value :  2.71750e-04
 Reference value :  2.71750e-04
 Reference value :  2.71750e-04
 Reference value :  2.71751e-04
 Reference value :  2.71751e-04
 Reference value :  2.71752e-04
 Reference value :  2.71752e-04
 Reference value :  2.71753e-04
 Reference value :  2.71754e-04
 Reference value :  2.71754e-04
 Reference value :  2.71755e-04
 Reference value :  2.71757e-04
 Reference value :  2.71758e-04
 Reference value :  2.71759e-04
 Reference value :  2.71762e-04
 Reference value :  2.71765e-04
 Reference value :  2.71769e-04
 Reference value :  2.71773e-04
 Reference value :  2.71783e-04
 Reference value :  2.71802e-04
 Reference value :  2.71840e-04
 Reference value :  2.71916e-04
 Reference value :  2.72000e-04
No. of Data Rows : 41824
ngspice-44 done
