
Note: Compatibility modes selected: hs a


Circuit: ** sch_path: /home/audrey/cace/sar-adc-using-sky130-pdk/runs/run_2025-08-29_18-10-06/parameters/power/run_02/power_consumption.sch

option SCALE: Scale is set to 1e-06 for instance and model parameters
option SCALE: Scale is set to 1e-06 for instance and model parameters
option SCALE: Scale is set to 1e-06 for instance and model parameters
option SCALE: Scale is set to 1e-06 for instance and model parameters
Doing analysis at TEMP = 27.000000 and TNOM = 27.000000

Using KLU as Direct Linear Solver
Operating point simulation skipped by 'uic',
  now using transient initial conditions.
 Reference value :  5.00000e-12
 Reference value :  5.14000e-12
 Reference value :  5.42000e-12
 Reference value :  5.98000e-12
 Reference value :  8.69767e-12
 Reference value :  1.64617e-11
 Reference value :  3.58819e-11
 Reference value :  6.17754e-11
 Reference value :  1.13562e-10
 Reference value :  3.85722e-10
 Reference value :  5.00000e-10
 Reference value :  5.17571e-10
 Reference value :  6.22999e-10
 Reference value :  1.02114e-09
 Reference value :  1.76034e-09
 Reference value :  2.87491e-09
 Reference value :  4.52183e-09
 Reference value :  5.45950e-09
 Reference value :  6.44860e-09
 Reference value :  7.24289e-09
 Reference value :  7.95781e-09
 Reference value :  9.47323e-09
 Reference value :  1.04359e-08
 Reference value :  1.14616e-08
 Reference value :  1.23301e-08
 Reference value :  1.31843e-08
 Reference value :  1.40073e-08
 Reference value :  1.62971e-08
 Reference value :  2.54462e-08
 Reference value :  3.40885e-08
 Reference value :  5.21210e-08
 Reference value :  1.03840e-07
 Reference value :  2.29353e-07
 Reference value :  5.00000e-07
 Reference value :  6.98546e-07
 Reference value :  1.00055e-06
 Reference value :  1.00100e-06
 Reference value :  1.00140e-06
 Reference value :  1.00241e-06
 Reference value :  1.00416e-06
 Reference value :  1.00471e-06
 Reference value :  1.00670e-06
 Reference value :  1.01027e-06
 Reference value :  1.02193e-06
 Reference value :  1.12178e-06
 Reference value :  2.00005e-06
 Reference value :  2.00075e-06
 Reference value :  2.00228e-06
 Reference value :  2.00326e-06
 Reference value :  2.00504e-06
 Reference value :  2.00702e-06
 Reference value :  2.00968e-06
 Reference value :  2.01233e-06
 Reference value :  2.01753e-06
 Reference value :  2.05747e-06
 Reference value :  3.00050e-06
 Reference value :  3.00100e-06
 Reference value :  3.00110e-06
 Reference value :  3.00175e-06
 Reference value :  3.00268e-06
 Reference value :  3.00438e-06
 Reference value :  3.00551e-06
 Reference value :  3.00691e-06
 Reference value :  3.00942e-06
 Reference value :  3.01971e-06
 Reference value :  3.04974e-06
 Reference value :  3.16984e-06
 Reference value :  3.65025e-06
 Reference value :  4.00005e-06
 Reference value :  4.00050e-06
 Reference value :  4.00061e-06
 Reference value :  4.00103e-06
 Reference value :  4.00137e-06
 Reference value :  4.00228e-06
 Reference value :  4.00276e-06
 Reference value :  4.00382e-06
 Reference value :  4.00535e-06
 Reference value :  4.00588e-06
 Reference value :  4.00657e-06
 Reference value :  4.01026e-06
 Reference value :  4.01200e-06
 Reference value :  4.01339e-06
 Reference value :  4.01556e-06
 Reference value :  4.01667e-06
 Reference value :  4.02032e-06
 Reference value :  4.03515e-06
 Reference value :  4.05805e-06
 Reference value :  4.07703e-06
 Reference value :  4.09551e-06
 Reference value :  4.12859e-06
 Reference value :  4.27192e-06
 Reference value :  4.88746e-06
 Reference value :  5.00085e-06
 Reference value :  5.00110e-06
 Reference value :  5.00175e-06
 Reference value :  5.00268e-06
 Reference value :  5.00437e-06
 Reference value :  5.00554e-06
 Reference value :  5.00843e-06
 Reference value :  5.03371e-06
 Reference value :  5.77821e-06
 Reference value :  6.00035e-06
 Reference value :  6.00061e-06
 Reference value :  6.00137e-06
 Reference value :  6.00277e-06
 Reference value :  6.00382e-06
 Reference value :  6.00511e-06
 Reference value :  6.00643e-06
 Reference value :  6.00904e-06
 Reference value :  6.01102e-06
 Reference value :  6.02741e-06
 Reference value :  6.54482e-06
 Reference value :  7.00085e-06
 Reference value :  7.00123e-06
 Reference value :  7.00220e-06
 Reference value :  7.00384e-06
 Reference value :  7.00498e-06
 Reference value :  7.00609e-06
 Reference value :  7.00685e-06
 Reference value :  7.00951e-06
 Reference value :  7.01813e-06
 Reference value :  7.06631e-06
 Reference value :  7.59412e-06
 Reference value :  8.00015e-06
 Reference value :  8.00054e-06
 Reference value :  8.00103e-06
 Reference value :  8.00182e-06
 Reference value :  8.00276e-06
 Reference value :  8.00383e-06
 Reference value :  8.00536e-06
 Reference value :  8.00730e-06
 Reference value :  8.00947e-06
 Reference value :  8.01132e-06
 Reference value :  8.01329e-06
 Reference value :  8.01473e-06
 Reference value :  8.01560e-06
 Reference value :  8.01742e-06
 Reference value :  8.01946e-06
 Reference value :  8.03390e-06
 Reference value :  8.10258e-06
 Reference value :  8.20886e-06
 Reference value :  8.31116e-06
 Reference value :  8.37185e-06
 Reference value :  8.40714e-06
 Reference value :  8.46448e-06
 Reference value :  8.51614e-06
 Reference value :  8.57076e-06
 Reference value :  9.00050e-06
 Reference value :  9.00085e-06
 Reference value :  9.00123e-06
 Reference value :  9.00220e-06
 Reference value :  9.00384e-06
 Reference value :  9.00498e-06
 Reference value :  9.00620e-06
 Reference value :  9.00995e-06
 Reference value :  9.03439e-06
 Reference value :  9.40705e-06
 Reference value :  1.00001e-05
 Reference value :  1.00006e-05
 Reference value :  1.00018e-05
 Reference value :  1.00033e-05
 Reference value :  1.00051e-05
 Reference value :  1.00064e-05
 Reference value :  1.00090e-05
 Reference value :  1.00110e-05
 Reference value :  1.00273e-05
 Reference value :  1.05380e-05
 Reference value :  1.10008e-05
 Reference value :  1.10012e-05
 Reference value :  1.10022e-05
 Reference value :  1.10038e-05
 Reference value :  1.10044e-05
 Reference value :  1.10061e-05
 Reference value :  1.10085e-05
 Reference value :  1.10149e-05
 Reference value :  1.10452e-05
 Reference value :  1.15979e-05
 Reference value :  1.20003e-05
 Reference value :  1.20007e-05
 Reference value :  1.20023e-05
 Reference value :  1.20033e-05
 Reference value :  1.20054e-05
 Reference value :  1.20073e-05
 Reference value :  1.20095e-05
 Reference value :  1.20113e-05
 Reference value :  1.20133e-05
 Reference value :  1.20156e-05
 Reference value :  1.20174e-05
 Reference value :  1.20195e-05
 Reference value :  1.20268e-05
 Reference value :  1.20311e-05
 Reference value :  1.20416e-05
 Reference value :  1.20463e-05
 Reference value :  1.20536e-05
 Reference value :  1.20570e-05
 Reference value :  1.20691e-05
 Reference value :  1.20772e-05
 Reference value :  1.20967e-05
 Reference value :  1.21303e-05
 Reference value :  1.22262e-05
 Reference value :  1.23860e-05
 Reference value :  1.28166e-05
 Reference value :  1.30006e-05
 Reference value :  1.30009e-05
 Reference value :  1.30010e-05
 Reference value :  1.30015e-05
 Reference value :  1.30022e-05
 Reference value :  1.30027e-05
 Reference value :  1.30038e-05
 Reference value :  1.30044e-05
 Reference value :  1.30056e-05
 Reference value :  1.30071e-05
 Reference value :  1.30101e-05
 Reference value :  1.30160e-05
 Reference value :  1.30613e-05
 Reference value :  1.32166e-05
 Reference value :  1.40000e-05
 Reference value :  1.40002e-05
 Reference value :  1.40005e-05
 Reference value :  1.40007e-05
 Reference value :  1.40014e-05
 Reference value :  1.40018e-05
 Reference value :  1.40023e-05
 Reference value :  1.40032e-05
 Reference value :  1.40038e-05
 Reference value :  1.40049e-05
 Reference value :  1.40063e-05
 Reference value :  1.40080e-05
 Reference value :  1.40098e-05
 Reference value :  1.40120e-05
 Reference value :  1.40267e-05
 Reference value :  1.40740e-05
 Reference value :  1.42631e-05
 Reference value :  1.50005e-05
 Reference value :  1.50009e-05
 Reference value :  1.50010e-05
 Reference value :  1.50012e-05
 Reference value :  1.50017e-05
 Reference value :  1.50027e-05
 Reference value :  1.50038e-05
 Reference value :  1.50055e-05
 Reference value :  1.50094e-05
 Reference value :  1.50498e-05
 Reference value :  1.53308e-05
 Reference value :  1.60000e-05
 Reference value :  1.60004e-05
 Reference value :  1.60005e-05
 Reference value :  1.60007e-05
 Reference value :  1.60014e-05
 Reference value :  1.60023e-05
 Reference value :  1.60033e-05
 Reference value :  1.60044e-05
 Reference value :  1.60053e-05
 Reference value :  1.60066e-05
 Reference value :  1.60103e-05
 Reference value :  1.60120e-05
 Reference value :  1.60149e-05
 Reference value :  1.60170e-05
 Reference value :  1.60195e-05
 Reference value :  1.60255e-05
 Reference value :  1.60389e-05
 Reference value :  1.60614e-05
 Reference value :  1.60693e-05
 Reference value :  1.60832e-05
 Reference value :  1.60975e-05
 Reference value :  1.61226e-05
 Reference value :  1.61315e-05
 Reference value :  1.61408e-05
 Reference value :  1.61819e-05
 Reference value :  1.62315e-05
 Reference value :  1.63855e-05
 Reference value :  1.69957e-05
 Reference value :  1.70007e-05
 Reference value :  1.70010e-05
 Reference value :  1.70014e-05
 Reference value :  1.70021e-05
 Reference value :  1.70030e-05
 Reference value :  1.70048e-05
 Reference value :  1.70059e-05
 Reference value :  1.70073e-05
 Reference value :  1.70135e-05
 Reference value :  1.70386e-05
 Reference value :  1.72046e-05
 Reference value :  1.80000e-05
 Reference value :  1.80004e-05
 Reference value :  1.80006e-05
 Reference value :  1.80014e-05
 Reference value :  1.80023e-05
 Reference value :  1.80033e-05
 Reference value :  1.80044e-05
 Reference value :  1.80058e-05
 Reference value :  1.80064e-05
 Reference value :  1.80080e-05
 Reference value :  1.80099e-05
 Reference value :  1.80122e-05
 Reference value :  1.80197e-05
 Reference value :  1.80533e-05
 Reference value :  1.82869e-05
 Reference value :  1.90006e-05
 Reference value :  1.90009e-05
 Reference value :  1.90011e-05
 Reference value :  1.90014e-05
 Reference value :  1.90021e-05
 Reference value :  1.90030e-05
 Reference value :  1.90043e-05
 Reference value :  1.90054e-05
 Reference value :  1.90075e-05
 Reference value :  1.90133e-05
 Reference value :  1.90661e-05
 Reference value :  1.92113e-05
 Reference value :  1.97925e-05
 Reference value :  2.00001e-05
 Reference value :  2.00005e-05
 Reference value :  2.00007e-05
 Reference value :  2.00014e-05
 Reference value :  2.00023e-05
 Reference value :  2.00033e-05
 Reference value :  2.00050e-05
 Reference value :  2.00060e-05
 Reference value :  2.00075e-05
 Reference value :  2.00108e-05
 Reference value :  2.00123e-05
 Reference value :  2.00150e-05
 Reference value :  2.00171e-05
 Reference value :  2.00207e-05
 Reference value :  2.00305e-05
 Reference value :  2.00418e-05
 Reference value :  2.00527e-05
 Reference value :  2.00624e-05
 Reference value :  2.00740e-05
 Reference value :  2.01117e-05
 Reference value :  2.03013e-05
 Reference value :  2.09166e-05
 Reference value :  2.10005e-05
 Reference value :  2.10010e-05
 Reference value :  2.10012e-05
 Reference value :  2.10017e-05
 Reference value :  2.10025e-05
 Reference value :  2.10036e-05
 Reference value :  2.10048e-05
 Reference value :  2.10059e-05
 Reference value :  2.10073e-05
 Reference value :  2.10135e-05
 Reference value :  2.10389e-05
 Reference value :  2.10814e-05
 Reference value :  2.11234e-05
 Reference value :  2.12448e-05
 Reference value :  2.15124e-05
 Reference value :  2.20000e-05
 Reference value :  2.20005e-05
 Reference value :  2.20007e-05
 Reference value :  2.20014e-05
 Reference value :  2.20023e-05
 Reference value :  2.20033e-05
 Reference value :  2.20044e-05
 Reference value :  2.20064e-05
 Reference value :  2.20089e-05
 Reference value :  2.20122e-05
 Reference value :  2.20363e-05
 Reference value :  2.25506e-05
 Reference value :  2.30008e-05
 Reference value :  2.30012e-05
 Reference value :  2.30017e-05
 Reference value :  2.30030e-05
 Reference value :  2.30048e-05
 Reference value :  2.30059e-05
 Reference value :  2.30075e-05
 Reference value :  2.30132e-05
 Reference value :  2.30646e-05
 Reference value :  2.37729e-05
 Reference value :  2.40002e-05
 Reference value :  2.40005e-05
 Reference value :  2.40010e-05
 Reference value :  2.40019e-05
 Reference value :  2.40023e-05
 Reference value :  2.40033e-05
 Reference value :  2.40044e-05
 Reference value :  2.40055e-05
 Reference value :  2.40068e-05
 Reference value :  2.40090e-05
 Reference value :  2.40123e-05
 Reference value :  2.40150e-05
 Reference value :  2.40171e-05
 Reference value :  2.40207e-05
 Reference value :  2.40305e-05
 Reference value :  2.40406e-05
 Reference value :  2.40505e-05
 Reference value :  2.40706e-05
 Reference value :  2.41071e-05
 Reference value :  2.43615e-05
 Reference value :  2.50005e-05
 Reference value :  2.50010e-05
 Reference value :  2.50012e-05
 Reference value :  2.50021e-05
 Reference value :  2.50025e-05
 Reference value :  2.50036e-05
 Reference value :  2.50048e-05
 Reference value :  2.50066e-05
 Reference value :  2.50108e-05
 Reference value :  2.50389e-05
 Reference value :  2.52066e-05
 Reference value :  2.60001e-05
 Reference value :  2.60005e-05
 Reference value :  2.60010e-05
 Reference value :  2.60023e-05
 Reference value :  2.60033e-05
 Reference value :  2.60052e-05
 Reference value :  2.60065e-05
 Reference value :  2.60091e-05
 Reference value :  2.60147e-05
 Reference value :  2.61035e-05
 Reference value :  2.67369e-05
 Reference value :  2.70009e-05
 Reference value :  2.70010e-05
 Reference value :  2.70014e-05
 Reference value :  2.70021e-05
 Reference value :  2.70025e-05
 Reference value :  2.70036e-05
 Reference value :  2.70048e-05
 Reference value :  2.70054e-05
 Reference value :  2.70066e-05
 Reference value :  2.70083e-05
 Reference value :  2.70092e-05
 Reference value :  2.70120e-05
 Reference value :  2.70169e-05
 Reference value :  2.70682e-05
 Reference value :  2.73524e-05
 Reference value :  2.80004e-05
 Reference value :  2.80006e-05
 Reference value :  2.80014e-05
 Reference value :  2.80023e-05
 Reference value :  2.80033e-05
 Reference value :  2.80044e-05
 Reference value :  2.80055e-05
 Reference value :  2.80061e-05
 Reference value :  2.80076e-05
 Reference value :  2.80086e-05
 Reference value :  2.80107e-05
 Reference value :  2.80117e-05
 Reference value :  2.80128e-05
 Reference value :  2.80138e-05
 Reference value :  2.80159e-05
 Reference value :  2.80179e-05
 Reference value :  2.80189e-05
 Reference value :  2.80220e-05
 Reference value :  2.80429e-05
 Reference value :  2.81294e-05
 Reference value :  2.84455e-05
 Reference value :  2.90005e-05
 Reference value :  2.90007e-05
 Reference value :  2.90010e-05
 Reference value :  2.90011e-05
 Reference value :  2.90014e-05
 Reference value :  2.90021e-05
 Reference value :  2.90030e-05
 Reference value :  2.90048e-05
 Reference value :  2.90059e-05
 Reference value :  2.90087e-05
 Reference value :  2.90248e-05
 Reference value :  2.92040e-05
 Reference value :  3.00001e-05
 Reference value :  3.00005e-05
 Reference value :  3.00010e-05
 Reference value :  3.00023e-05
 Reference value :  3.00039e-05
 Reference value :  3.00059e-05
 Reference value :  3.00072e-05
 Reference value :  3.00101e-05
 Reference value :  3.00180e-05
 Reference value :  3.01020e-05
 Reference value :  3.10005e-05
 Reference value :  3.10010e-05
 Reference value :  3.10014e-05
 Reference value :  3.10025e-05
 Reference value :  3.10048e-05
 Reference value :  3.10066e-05
 Reference value :  3.10092e-05
 Reference value :  3.10138e-05
 Reference value :  3.10439e-05
 Reference value :  3.13483e-05
 Reference value :  3.20001e-05
 Reference value :  3.20005e-05
 Reference value :  3.20014e-05
 Reference value :  3.20023e-05
 Reference value :  3.20033e-05
 Reference value :  3.20050e-05
 Reference value :  3.20061e-05
 Reference value :  3.20083e-05
 Reference value :  3.20098e-05
 Reference value :  3.20125e-05
 Reference value :  3.20198e-05
 Reference value :  3.20517e-05
 Reference value :  3.21291e-05
 Reference value :  3.21943e-05
 Reference value :  3.23235e-05
 Reference value :  3.26183e-05
 Reference value :  3.30006e-05
 Reference value :  3.30009e-05
 Reference value :  3.30011e-05
 Reference value :  3.30017e-05
 Reference value :  3.30026e-05
 Reference value :  3.30044e-05
 Reference value :  3.30059e-05
 Reference value :  3.30099e-05
 Reference value :  3.30207e-05
 Reference value :  3.31121e-05
 Reference value :  3.40000e-05
No. of Data Rows : 1296
ngspice-44 done
