
Note: Compatibility modes selected: hs a


Circuit: ** sch_path: /home/ece/cace/sar-adc-using-sky130-pdk/runs/run_2025-09-13_04-36-02/parameters/dnl/run_0/sar_output_dnl.sch

option SCALE: Scale is set to 1e-06 for instance and model parameters
option SCALE: Scale is set to 1e-06 for instance and model parameters
option SCALE: Scale is set to 1e-06 for instance and model parameters
option SCALE: Scale is set to 1e-06 for instance and model parameters
Doing analysis at TEMP = -55.000000 and TNOM = 27.000000

Using KLU as Direct Linear Solver
Operating point simulation skipped by 'uic',
  now using transient initial conditions.
 Reference value :  1.00000e-12
 Reference value :  1.02772e-12
 Reference value :  1.08316e-12
 Reference value :  1.19404e-12
 Reference value :  1.33848e-12
 Reference value :  1.62736e-12
 Reference value :  2.20513e-12
 Reference value :  3.05352e-12
 Reference value :  3.96028e-12
 Reference value :  5.17739e-12
 Reference value :  6.90716e-12
 Reference value :  1.00098e-11
 Reference value :  1.35263e-11
 Reference value :  2.03857e-11
 Reference value :  2.71332e-11
 Reference value :  3.61788e-11
 Reference value :  4.73783e-11
 Reference value :  6.28426e-11
 Reference value :  8.35145e-11
 Reference value :  1.00000e-10
 Reference value :  1.01350e-10
 Reference value :  1.04051e-10
 Reference value :  1.09451e-10
 Reference value :  1.20253e-10
 Reference value :  1.41856e-10
 Reference value :  1.85062e-10
 Reference value :  2.71474e-10
 Reference value :  4.23018e-10
 Reference value :  5.96221e-10
 Reference value :  8.71531e-10
 Reference value :  1.24783e-09
 Reference value :  1.62871e-09
 Reference value :  2.29405e-09
 Reference value :  2.96927e-09
 Reference value :  3.89628e-09
 Reference value :  4.63791e-09
 Reference value :  5.41733e-09
 Reference value :  6.21673e-09
 Reference value :  7.08169e-09
 Reference value :  8.27334e-09
 Reference value :  9.54105e-09
 Reference value :  1.08685e-08
 Reference value :  1.17277e-08
 Reference value :  1.25434e-08
 Reference value :  1.34393e-08
 Reference value :  1.43842e-08
 Reference value :  1.58468e-08
 Reference value :  1.76896e-08
 Reference value :  2.06001e-08
 Reference value :  2.35857e-08
 Reference value :  2.66753e-08
 Reference value :  3.04062e-08
 Reference value :  3.41397e-08
 Reference value :  3.80694e-08
 Reference value :  4.21110e-08
 Reference value :  4.62486e-08
 Reference value :  5.25081e-08
 Reference value :  6.13307e-08
 Reference value :  7.54642e-08
 Reference value :  9.88681e-08
 Reference value :  1.37193e-07
 Reference value :  2.10331e-07
 Reference value :  2.50100e-07
 Reference value :  2.50110e-07
 Reference value :  2.50130e-07
 Reference value :  2.50170e-07
 Reference value :  2.50200e-07
 Reference value :  2.50201e-07
 Reference value :  2.50202e-07
 Reference value :  2.50204e-07
 Reference value :  2.50209e-07
 Reference value :  2.50218e-07
 Reference value :  2.50236e-07
 Reference value :  2.50273e-07
 Reference value :  2.50339e-07
 Reference value :  2.50454e-07
 Reference value :  2.50579e-07
 Reference value :  2.50788e-07
 Reference value :  2.51084e-07
 Reference value :  2.51485e-07
 Reference value :  2.51974e-07
 Reference value :  2.52502e-07
 Reference value :  2.53135e-07
 Reference value :  2.53925e-07
 Reference value :  2.54627e-07
 Reference value :  2.55403e-07
 Reference value :  2.56101e-07
 Reference value :  2.56915e-07
 Reference value :  2.57746e-07
 Reference value :  2.58966e-07
 Reference value :  2.60758e-07
 Reference value :  2.62769e-07
 Reference value :  2.65889e-07
 Reference value :  2.71092e-07
 Reference value :  2.81497e-07
 Reference value :  3.02309e-07
 Reference value :  3.43931e-07
 Reference value :  4.27176e-07
 Reference value :  5.00000e-07
 Reference value :  5.00010e-07
 Reference value :  5.00030e-07
 Reference value :  5.00070e-07
 Reference value :  5.00100e-07
 Reference value :  5.00104e-07
 Reference value :  5.00113e-07
 Reference value :  5.00131e-07
 Reference value :  5.00166e-07
 Reference value :  5.00236e-07
 Reference value :  5.00365e-07
 Reference value :  5.00588e-07
 Reference value :  5.01009e-07
 Reference value :  5.01496e-07
 Reference value :  5.02020e-07
 Reference value :  5.02514e-07
 Reference value :  5.03092e-07
 Reference value :  5.03681e-07
 Reference value :  5.04424e-07
 Reference value :  5.05214e-07
 Reference value :  5.05968e-07
 Reference value :  5.07095e-07
 Reference value :  5.08219e-07
 Reference value :  5.09884e-07
 Reference value :  5.11914e-07
 Reference value :  5.13387e-07
 Reference value :  5.15020e-07
 Reference value :  5.16823e-07
 Reference value :  5.18559e-07
 Reference value :  5.20352e-07
 Reference value :  5.22756e-07
 Reference value :  5.25816e-07
 Reference value :  5.30252e-07
 Reference value :  5.36702e-07
 Reference value :  5.48661e-07
 Reference value :  5.66390e-07
 Reference value :  5.97454e-07
 Reference value :  6.48454e-07
 Reference value :  7.32676e-07
 Reference value :  7.50100e-07
 Reference value :  7.50110e-07
 Reference value :  7.50130e-07
 Reference value :  7.50170e-07
 Reference value :  7.50200e-07
 Reference value :  7.50201e-07
 Reference value :  7.50203e-07
 Reference value :  7.50206e-07
 Reference value :  7.50213e-07
 Reference value :  7.50226e-07
 Reference value :  7.50253e-07
 Reference value :  7.50307e-07
 Reference value :  7.50415e-07
 Reference value :  7.50630e-07
 Reference value :  7.50967e-07
 Reference value :  7.51325e-07
 Reference value :  7.51800e-07
 Reference value :  7.52315e-07
 Reference value :  7.53045e-07
 Reference value :  7.53867e-07
 Reference value :  7.54571e-07
 Reference value :  7.55395e-07
 Reference value :  7.56109e-07
 Reference value :  7.56866e-07
 Reference value :  7.57697e-07
 Reference value :  7.58643e-07
 Reference value :  7.60375e-07
 Reference value :  7.62777e-07
 Reference value :  7.65818e-07
 Reference value :  7.71829e-07
 Reference value :  7.83850e-07
 Reference value :  8.04482e-07
 Reference value :  8.45745e-07
 Reference value :  9.22722e-07
 Reference value :  1.00000e-06
 Reference value :  1.00001e-06
 Reference value :  1.00003e-06
 Reference value :  1.00007e-06
 Reference value :  1.00010e-06
 Reference value :  1.00010e-06
 Reference value :  1.00011e-06
 Reference value :  1.00013e-06
 Reference value :  1.00017e-06
 Reference value :  1.00024e-06
 Reference value :  1.00036e-06
 Reference value :  1.00059e-06
 Reference value :  1.00101e-06
 Reference value :  1.00149e-06
 Reference value :  1.00202e-06
 Reference value :  1.00251e-06
 Reference value :  1.00309e-06
 Reference value :  1.00363e-06
 Reference value :  1.00440e-06
 Reference value :  1.00503e-06
 Reference value :  1.00570e-06
 Reference value :  1.00651e-06
 Reference value :  1.00739e-06
 Reference value :  1.00817e-06
 Reference value :  1.00901e-06
 Reference value :  1.01012e-06
 Reference value :  1.01141e-06
 Reference value :  1.01328e-06
 Reference value :  1.01538e-06
 Reference value :  1.01711e-06
 Reference value :  1.01860e-06
 Reference value :  1.01971e-06
 Reference value :  1.02075e-06
 Reference value :  1.02170e-06
 Reference value :  1.02277e-06
 Reference value :  1.02390e-06
 Reference value :  1.02550e-06
 Reference value :  1.02724e-06
 Reference value :  1.03023e-06
 Reference value :  1.03518e-06
 Reference value :  1.03943e-06
 Reference value :  1.04288e-06
 Reference value :  1.04634e-06
 Reference value :  1.04985e-06
 Reference value :  1.05189e-06
 Reference value :  1.05416e-06
 Reference value :  1.05749e-06
 Reference value :  1.06081e-06
 Reference value :  1.06392e-06
 Reference value :  1.06720e-06
 Reference value :  1.07087e-06
 Reference value :  1.07821e-06
 Reference value :  1.08781e-06
 Reference value :  1.09547e-06
 Reference value :  1.10421e-06
 Reference value :  1.11393e-06
 Reference value :  1.12766e-06
 Reference value :  1.14783e-06
 Reference value :  1.18058e-06
 Reference value :  1.24609e-06
 Reference value :  1.25010e-06
 Reference value :  1.25011e-06
 Reference value :  1.25013e-06
 Reference value :  1.25017e-06
 Reference value :  1.25020e-06
 Reference value :  1.25020e-06
 Reference value :  1.25020e-06
 Reference value :  1.25021e-06
 Reference value :  1.25021e-06
 Reference value :  1.25023e-06
 Reference value :  1.25025e-06
 Reference value :  1.25031e-06
 Reference value :  1.25041e-06
 Reference value :  1.25062e-06
 Reference value :  1.25096e-06
 Reference value :  1.25131e-06
 Reference value :  1.25177e-06
 Reference value :  1.25229e-06
 Reference value :  1.25297e-06
 Reference value :  1.25378e-06
 Reference value :  1.25449e-06
 Reference value :  1.25529e-06
 Reference value :  1.25604e-06
 Reference value :  1.25683e-06
 Reference value :  1.25801e-06
 Reference value :  1.25923e-06
 Reference value :  1.26113e-06
 Reference value :  1.26368e-06
 Reference value :  1.26717e-06
 Reference value :  1.27416e-06
 Reference value :  1.28693e-06
 Reference value :  1.30906e-06
 Reference value :  1.35227e-06
 Reference value :  1.43256e-06
 Reference value :  1.50000e-06
 Reference value :  1.50001e-06
 Reference value :  1.50003e-06
 Reference value :  1.50007e-06
 Reference value :  1.50010e-06
 Reference value :  1.50010e-06
 Reference value :  1.50011e-06
 Reference value :  1.50013e-06
 Reference value :  1.50017e-06
 Reference value :  1.50024e-06
 Reference value :  1.50036e-06
 Reference value :  1.50057e-06
 Reference value :  1.50098e-06
 Reference value :  1.50148e-06
 Reference value :  1.50200e-06
 Reference value :  1.50246e-06
 Reference value :  1.50301e-06
 Reference value :  1.50353e-06
 Reference value :  1.50421e-06
 Reference value :  1.50492e-06
 Reference value :  1.50566e-06
 Reference value :  1.50667e-06
 Reference value :  1.50771e-06
 Reference value :  1.50921e-06
 Reference value :  1.51021e-06
 Reference value :  1.51135e-06
 Reference value :  1.51240e-06
 Reference value :  1.51365e-06
 Reference value :  1.51497e-06
 Reference value :  1.51638e-06
 Reference value :  1.51921e-06
 Reference value :  1.52429e-06
 Reference value :  1.53287e-06
 Reference value :  1.55004e-06
 Reference value :  1.58204e-06
 Reference value :  1.64605e-06
 Reference value :  1.75010e-06
 Reference value :  1.75011e-06
 Reference value :  1.75013e-06
 Reference value :  1.75017e-06
 Reference value :  1.75020e-06
 Reference value :  1.75020e-06
 Reference value :  1.75020e-06
 Reference value :  1.75021e-06
 Reference value :  1.75021e-06
 Reference value :  1.75023e-06
 Reference value :  1.75025e-06
 Reference value :  1.75031e-06
 Reference value :  1.75041e-06
 Reference value :  1.75062e-06
 Reference value :  1.75096e-06
 Reference value :  1.75131e-06
 Reference value :  1.75177e-06
 Reference value :  1.75228e-06
 Reference value :  1.75299e-06
 Reference value :  1.75377e-06
 Reference value :  1.75451e-06
 Reference value :  1.75537e-06
 Reference value :  1.75617e-06
 Reference value :  1.75694e-06
 Reference value :  1.75781e-06
 Reference value :  1.75879e-06
 Reference value :  1.75990e-06
 Reference value :  1.76110e-06
 Reference value :  1.76290e-06
 Reference value :  1.76479e-06
 Reference value :  1.76777e-06
 Reference value :  1.77190e-06
 Reference value :  1.78015e-06
 Reference value :  1.79666e-06
 Reference value :  1.82719e-06
 Reference value :  1.88826e-06
 Reference value :  2.00000e-06
 Reference value :  2.00001e-06
 Reference value :  2.00003e-06
 Reference value :  2.00007e-06
 Reference value :  2.00010e-06
 Reference value :  2.00010e-06
 Reference value :  2.00011e-06
 Reference value :  2.00013e-06
 Reference value :  2.00017e-06
 Reference value :  2.00024e-06
 Reference value :  2.00036e-06
 Reference value :  2.00057e-06
 Reference value :  2.00098e-06
 Reference value :  2.00148e-06
 Reference value :  2.00200e-06
 Reference value :  2.00248e-06
 Reference value :  2.00306e-06
 Reference value :  2.00359e-06
 Reference value :  2.00433e-06
 Reference value :  2.00501e-06
 Reference value :  2.00571e-06
 Reference value :  2.00654e-06
 Reference value :  2.00739e-06
 Reference value :  2.00817e-06
 Reference value :  2.00898e-06
 Reference value :  2.01017e-06
 Reference value :  2.01136e-06
 Reference value :  2.01330e-06
 Reference value :  2.01456e-06
 Reference value :  2.01599e-06
 Reference value :  2.01735e-06
 Reference value :  2.01858e-06
 Reference value :  2.01965e-06
 Reference value :  2.02076e-06
 Reference value :  2.02178e-06
 Reference value :  2.02286e-06
 Reference value :  2.02406e-06
 Reference value :  2.02587e-06
 Reference value :  2.02759e-06
 Reference value :  2.03092e-06
 Reference value :  2.03583e-06
 Reference value :  2.04341e-06
 Reference value :  2.05673e-06
 Reference value :  2.08122e-06
 Reference value :  2.12036e-06
 Reference value :  2.17187e-06
 Reference value :  2.23356e-06
 Reference value :  2.25010e-06
 Reference value :  2.25011e-06
 Reference value :  2.25013e-06
 Reference value :  2.25017e-06
 Reference value :  2.25020e-06
 Reference value :  2.25020e-06
 Reference value :  2.25020e-06
 Reference value :  2.25021e-06
 Reference value :  2.25021e-06
 Reference value :  2.25023e-06
 Reference value :  2.25025e-06
 Reference value :  2.25031e-06
 Reference value :  2.25041e-06
 Reference value :  2.25063e-06
 Reference value :  2.25097e-06
 Reference value :  2.25132e-06
 Reference value :  2.25179e-06
 Reference value :  2.25230e-06
 Reference value :  2.25300e-06
 Reference value :  2.25381e-06
 Reference value :  2.25453e-06
 Reference value :  2.25534e-06
 Reference value :  2.25612e-06
 Reference value :  2.25692e-06
 Reference value :  2.25815e-06
 Reference value :  2.25940e-06
 Reference value :  2.26136e-06
 Reference value :  2.26394e-06
 Reference value :  2.26773e-06
 Reference value :  2.27529e-06
 Reference value :  2.28792e-06
 Reference value :  2.31082e-06
 Reference value :  2.35270e-06
 Reference value :  2.42636e-06
 Reference value :  2.49795e-06
 Reference value :  2.50000e-06
 Reference value :  2.50001e-06
 Reference value :  2.50003e-06
 Reference value :  2.50007e-06
 Reference value :  2.50010e-06
 Reference value :  2.50010e-06
 Reference value :  2.50011e-06
 Reference value :  2.50013e-06
 Reference value :  2.50017e-06
 Reference value :  2.50024e-06
 Reference value :  2.50036e-06
 Reference value :  2.50057e-06
 Reference value :  2.50099e-06
 Reference value :  2.50148e-06
 Reference value :  2.50200e-06
 Reference value :  2.50246e-06
 Reference value :  2.50301e-06
 Reference value :  2.50353e-06
 Reference value :  2.50422e-06
 Reference value :  2.50493e-06
 Reference value :  2.50566e-06
 Reference value :  2.50667e-06
 Reference value :  2.50770e-06
 Reference value :  2.50921e-06
 Reference value :  2.51021e-06
 Reference value :  2.51135e-06
 Reference value :  2.51236e-06
 Reference value :  2.51357e-06
 Reference value :  2.51481e-06
 Reference value :  2.51619e-06
 Reference value :  2.51895e-06
 Reference value :  2.52394e-06
 Reference value :  2.53254e-06
 Reference value :  2.54976e-06
 Reference value :  2.58258e-06
 Reference value :  2.64822e-06
 Reference value :  2.75010e-06
 Reference value :  2.75011e-06
 Reference value :  2.75013e-06
 Reference value :  2.75017e-06
 Reference value :  2.75020e-06
 Reference value :  2.75020e-06
 Reference value :  2.75020e-06
 Reference value :  2.75021e-06
 Reference value :  2.75021e-06
 Reference value :  2.75023e-06
 Reference value :  2.75025e-06
 Reference value :  2.75031e-06
 Reference value :  2.75041e-06
 Reference value :  2.75062e-06
 Reference value :  2.75096e-06
 Reference value :  2.75131e-06
 Reference value :  2.75177e-06
 Reference value :  2.75228e-06
 Reference value :  2.75299e-06
 Reference value :  2.75377e-06
 Reference value :  2.75451e-06
 Reference value :  2.75536e-06
 Reference value :  2.75616e-06
 Reference value :  2.75693e-06
 Reference value :  2.75780e-06
 Reference value :  2.75877e-06
 Reference value :  2.75985e-06
 Reference value :  2.76107e-06
 Reference value :  2.76304e-06
 Reference value :  2.76485e-06
 Reference value :  2.76797e-06
 Reference value :  2.77198e-06
 Reference value :  2.78002e-06
 Reference value :  2.79609e-06
 Reference value :  2.82541e-06
 Reference value :  2.88405e-06
 Reference value :  3.00000e-06
 Reference value :  3.00001e-06
 Reference value :  3.00003e-06
 Reference value :  3.00007e-06
 Reference value :  3.00010e-06
 Reference value :  3.00010e-06
 Reference value :  3.00011e-06
 Reference value :  3.00013e-06
 Reference value :  3.00017e-06
 Reference value :  3.00024e-06
 Reference value :  3.00036e-06
 Reference value :  3.00057e-06
 Reference value :  3.00098e-06
 Reference value :  3.00148e-06
 Reference value :  3.00200e-06
 Reference value :  3.00248e-06
 Reference value :  3.00306e-06
 Reference value :  3.00359e-06
 Reference value :  3.00433e-06
 Reference value :  3.00501e-06
 Reference value :  3.00571e-06
 Reference value :  3.00654e-06
 Reference value :  3.00740e-06
 Reference value :  3.00821e-06
 Reference value :  3.00905e-06
 Reference value :  3.01020e-06
 Reference value :  3.01147e-06
 Reference value :  3.01309e-06
 Reference value :  3.01455e-06
 Reference value :  3.01604e-06
 Reference value :  3.01741e-06
 Reference value :  3.01845e-06
 Reference value :  3.01943e-06
 Reference value :  3.02054e-06
 Reference value :  3.02155e-06
 Reference value :  3.02260e-06
 Reference value :  3.02380e-06
 Reference value :  3.02543e-06
 Reference value :  3.02719e-06
 Reference value :  3.03023e-06
 Reference value :  3.03526e-06
 Reference value :  3.04304e-06
 Reference value :  3.05705e-06
 Reference value :  3.07826e-06
 Reference value :  3.09940e-06
 Reference value :  3.11752e-06
 Reference value :  3.13370e-06
 Reference value :  3.15128e-06
 Reference value :  3.16448e-06
 Reference value :  3.17663e-06
 Reference value :  3.18486e-06
 Reference value :  3.19464e-06
 Reference value :  3.21421e-06
 Reference value :  3.23800e-06
 Reference value :  3.25010e-06
 Reference value :  3.25011e-06
 Reference value :  3.25013e-06
 Reference value :  3.25017e-06
 Reference value :  3.25020e-06
 Reference value :  3.25020e-06
 Reference value :  3.25020e-06
 Reference value :  3.25021e-06
 Reference value :  3.25021e-06
 Reference value :  3.25023e-06
 Reference value :  3.25025e-06
 Reference value :  3.25031e-06
 Reference value :  3.25041e-06
 Reference value :  3.25062e-06
 Reference value :  3.25096e-06
 Reference value :  3.25131e-06
 Reference value :  3.25177e-06
 Reference value :  3.25228e-06
 Reference value :  3.25299e-06
 Reference value :  3.25379e-06
 Reference value :  3.25453e-06
 Reference value :  3.25536e-06
 Reference value :  3.25621e-06
 Reference value :  3.25701e-06
 Reference value :  3.25827e-06
 Reference value :  3.25956e-06
 Reference value :  3.26152e-06
 Reference value :  3.26417e-06
 Reference value :  3.26823e-06
 Reference value :  3.27634e-06
 Reference value :  3.28930e-06
 Reference value :  3.31349e-06
 Reference value :  3.35632e-06
 Reference value :  3.43177e-06
 Reference value :  3.50000e-06
 Reference value :  3.50001e-06
 Reference value :  3.50003e-06
 Reference value :  3.50007e-06
 Reference value :  3.50010e-06
 Reference value :  3.50010e-06
 Reference value :  3.50011e-06
 Reference value :  3.50013e-06
 Reference value :  3.50017e-06
 Reference value :  3.50024e-06
 Reference value :  3.50036e-06
 Reference value :  3.50057e-06
 Reference value :  3.50099e-06
 Reference value :  3.50148e-06
 Reference value :  3.50200e-06
 Reference value :  3.50246e-06
 Reference value :  3.50301e-06
 Reference value :  3.50353e-06
 Reference value :  3.50421e-06
 Reference value :  3.50492e-06
 Reference value :  3.50566e-06
 Reference value :  3.50667e-06
 Reference value :  3.50769e-06
 Reference value :  3.50917e-06
 Reference value :  3.51015e-06
 Reference value :  3.51128e-06
 Reference value :  3.51223e-06
 Reference value :  3.51337e-06
 Reference value :  3.51451e-06
 Reference value :  3.51586e-06
 Reference value :  3.51855e-06
 Reference value :  3.52350e-06
 Reference value :  3.53231e-06
 Reference value :  3.54993e-06
 Reference value :  3.58477e-06
 Reference value :  3.65446e-06
 Reference value :  3.75010e-06
 Reference value :  3.75011e-06
 Reference value :  3.75013e-06
 Reference value :  3.75017e-06
 Reference value :  3.75020e-06
 Reference value :  3.75020e-06
 Reference value :  3.75020e-06
 Reference value :  3.75021e-06
 Reference value :  3.75021e-06
 Reference value :  3.75023e-06
 Reference value :  3.75025e-06
 Reference value :  3.75031e-06
 Reference value :  3.75041e-06
 Reference value :  3.75062e-06
 Reference value :  3.75096e-06
 Reference value :  3.75131e-06
 Reference value :  3.75177e-06
 Reference value :  3.75228e-06
 Reference value :  3.75299e-06
 Reference value :  3.75378e-06
 Reference value :  3.75451e-06
 Reference value :  3.75536e-06
 Reference value :  3.75617e-06
 Reference value :  3.75693e-06
 Reference value :  3.75780e-06
 Reference value :  3.75878e-06
 Reference value :  3.75989e-06
 Reference value :  3.76109e-06
 Reference value :  3.76289e-06
 Reference value :  3.76478e-06
 Reference value :  3.76775e-06
 Reference value :  3.77185e-06
 Reference value :  3.78006e-06
 Reference value :  3.79648e-06
 Reference value :  3.82683e-06
 Reference value :  3.88753e-06
 Reference value :  4.00000e-06
 Reference value :  4.00001e-06
 Reference value :  4.00003e-06
 Reference value :  4.00007e-06
 Reference value :  4.00010e-06
 Reference value :  4.00010e-06
 Reference value :  4.00011e-06
 Reference value :  4.00013e-06
 Reference value :  4.00017e-06
 Reference value :  4.00024e-06
 Reference value :  4.00036e-06
 Reference value :  4.00057e-06
 Reference value :  4.00098e-06
 Reference value :  4.00148e-06
 Reference value :  4.00200e-06
 Reference value :  4.00248e-06
 Reference value :  4.00306e-06
 Reference value :  4.00359e-06
 Reference value :  4.00433e-06
 Reference value :  4.00501e-06
 Reference value :  4.00570e-06
 Reference value :  4.00654e-06
 Reference value :  4.00740e-06
 Reference value :  4.00820e-06
 Reference value :  4.00905e-06
 Reference value :  4.01014e-06
 Reference value :  4.01148e-06
 Reference value :  4.01244e-06
 Reference value :  4.01357e-06
 Reference value :  4.01472e-06
 Reference value :  4.01604e-06
 Reference value :  4.01723e-06
 Reference value :  4.01812e-06
 Reference value :  4.01898e-06
 Reference value :  4.02008e-06
 Reference value :  4.02122e-06
 Reference value :  4.02226e-06
 Reference value :  4.02360e-06
 Reference value :  4.02499e-06
 Reference value :  4.02701e-06
 Reference value :  4.02959e-06
 Reference value :  4.03475e-06
 Reference value :  4.04436e-06
 Reference value :  4.05431e-06
 Reference value :  4.06468e-06
 Reference value :  4.07170e-06
 Reference value :  4.07820e-06
 Reference value :  4.08554e-06
 Reference value :  4.09324e-06
 Reference value :  4.10374e-06
 Reference value :  4.11563e-06
 Reference value :  4.13103e-06
 Reference value :  4.15014e-06
 Reference value :  4.17393e-06
 Reference value :  4.20525e-06
 Reference value :  4.24621e-06
 Reference value :  4.25010e-06
 Reference value :  4.25011e-06
 Reference value :  4.25013e-06
 Reference value :  4.25017e-06
 Reference value :  4.25020e-06
 Reference value :  4.25020e-06
 Reference value :  4.25020e-06
 Reference value :  4.25021e-06
 Reference value :  4.25021e-06
 Reference value :  4.25023e-06
 Reference value :  4.25025e-06
 Reference value :  4.25031e-06
 Reference value :  4.25041e-06
 Reference value :  4.25062e-06
 Reference value :  4.25096e-06
 Reference value :  4.25131e-06
 Reference value :  4.25177e-06
 Reference value :  4.25228e-06
 Reference value :  4.25299e-06
 Reference value :  4.25378e-06
 Reference value :  4.25454e-06
 Reference value :  4.25540e-06
 Reference value :  4.25624e-06
 Reference value :  4.25707e-06
 Reference value :  4.25835e-06
 Reference value :  4.25966e-06
 Reference value :  4.26166e-06
 Reference value :  4.26434e-06
 Reference value :  4.26853e-06
 Reference value :  4.27691e-06
 Reference value :  4.29003e-06
 Reference value :  4.30343e-06
 Reference value :  4.31332e-06
 Reference value :  4.32330e-06
 Reference value :  4.33623e-06
 Reference value :  4.34937e-06
 Reference value :  4.36156e-06
 Reference value :  4.37461e-06
 Reference value :  4.38867e-06
 Reference value :  4.40891e-06
 Reference value :  4.43370e-06
 Reference value :  4.47078e-06
 Reference value :  4.50000e-06
 Reference value :  4.50001e-06
 Reference value :  4.50003e-06
 Reference value :  4.50007e-06
 Reference value :  4.50010e-06
 Reference value :  4.50010e-06
 Reference value :  4.50011e-06
 Reference value :  4.50013e-06
 Reference value :  4.50017e-06
 Reference value :  4.50024e-06
 Reference value :  4.50036e-06
 Reference value :  4.50057e-06
 Reference value :  4.50098e-06
 Reference value :  4.50148e-06
 Reference value :  4.50200e-06
 Reference value :  4.50246e-06
 Reference value :  4.50300e-06
 Reference value :  4.50353e-06
 Reference value :  4.50421e-06
 Reference value :  4.50492e-06
 Reference value :  4.50565e-06
 Reference value :  4.50667e-06
 Reference value :  4.50768e-06
 Reference value :  4.50906e-06
 Reference value :  4.51002e-06
 Reference value :  4.51110e-06
 Reference value :  4.51206e-06
 Reference value :  4.51318e-06
 Reference value :  4.51435e-06
 Reference value :  4.51571e-06
 Reference value :  4.51843e-06
 Reference value :  4.52261e-06
 Reference value :  4.53098e-06
 Reference value :  4.54772e-06
 Reference value :  4.57902e-06
 Reference value :  4.64161e-06
 Reference value :  4.75010e-06
 Reference value :  4.75011e-06
 Reference value :  4.75013e-06
 Reference value :  4.75017e-06
 Reference value :  4.75020e-06
 Reference value :  4.75020e-06
 Reference value :  4.75020e-06
 Reference value :  4.75021e-06
 Reference value :  4.75021e-06
 Reference value :  4.75023e-06
 Reference value :  4.75025e-06
 Reference value :  4.75031e-06
 Reference value :  4.75041e-06
 Reference value :  4.75062e-06
 Reference value :  4.75096e-06
 Reference value :  4.75131e-06
 Reference value :  4.75177e-06
 Reference value :  4.75228e-06
 Reference value :  4.75299e-06
 Reference value :  4.75377e-06
 Reference value :  4.75451e-06
 Reference value :  4.75536e-06
 Reference value :  4.75616e-06
 Reference value :  4.75692e-06
 Reference value :  4.75780e-06
 Reference value :  4.75877e-06
 Reference value :  4.75988e-06
 Reference value :  4.76108e-06
 Reference value :  4.76288e-06
 Reference value :  4.76477e-06
 Reference value :  4.76774e-06
 Reference value :  4.77184e-06
 Reference value :  4.78004e-06
 Reference value :  4.79644e-06
 Reference value :  4.82676e-06
 Reference value :  4.88740e-06
 Reference value :  5.00000e-06
 Reference value :  5.00001e-06
 Reference value :  5.00003e-06
 Reference value :  5.00007e-06
 Reference value :  5.00010e-06
 Reference value :  5.00010e-06
 Reference value :  5.00011e-06
 Reference value :  5.00013e-06
 Reference value :  5.00017e-06
 Reference value :  5.00024e-06
 Reference value :  5.00036e-06
 Reference value :  5.00057e-06
 Reference value :  5.00098e-06
 Reference value :  5.00147e-06
 Reference value :  5.00200e-06
 Reference value :  5.00248e-06
 Reference value :  5.00306e-06
 Reference value :  5.00359e-06
 Reference value :  5.00432e-06
 Reference value :  5.00500e-06
 Reference value :  5.00570e-06
 Reference value :  5.00653e-06
 Reference value :  5.00739e-06
 Reference value :  5.00822e-06
 Reference value :  5.00905e-06
 Reference value :  5.01012e-06
 Reference value :  5.01152e-06
 Reference value :  5.01248e-06
 Reference value :  5.01359e-06
 Reference value :  5.01480e-06
 Reference value :  5.01598e-06
 Reference value :  5.01724e-06
 Reference value :  5.01812e-06
 Reference value :  5.01895e-06
 Reference value :  5.01997e-06
 Reference value :  5.02105e-06
 Reference value :  5.02216e-06
 Reference value :  5.02341e-06
 Reference value :  5.02470e-06
 Reference value :  5.02681e-06
 Reference value :  5.02883e-06
 Reference value :  5.03157e-06
 Reference value :  5.03408e-06
 Reference value :  5.03595e-06
 Reference value :  5.03769e-06
 Reference value :  5.03960e-06
 Reference value :  5.04191e-06
 Reference value :  5.04472e-06
 Reference value :  5.04829e-06
 Reference value :  5.05303e-06
 Reference value :  5.05986e-06
 Reference value :  5.06891e-06
 Reference value :  5.08324e-06
 Reference value :  5.10356e-06
 Reference value :  5.13533e-06
 Reference value :  5.18286e-06
 Reference value :  5.25010e-06
 Reference value :  5.25011e-06
 Reference value :  5.25013e-06
 Reference value :  5.25017e-06
 Reference value :  5.25020e-06
 Reference value :  5.25020e-06
 Reference value :  5.25020e-06
 Reference value :  5.25021e-06
 Reference value :  5.25021e-06
 Reference value :  5.25023e-06
 Reference value :  5.25025e-06
 Reference value :  5.25031e-06
 Reference value :  5.25041e-06
 Reference value :  5.25062e-06
 Reference value :  5.25096e-06
 Reference value :  5.25131e-06
 Reference value :  5.25177e-06
 Reference value :  5.25229e-06
 Reference value :  5.25301e-06
 Reference value :  5.25380e-06
 Reference value :  5.25454e-06
 Reference value :  5.25539e-06
 Reference value :  5.25624e-06
 Reference value :  5.25706e-06
 Reference value :  5.25833e-06
 Reference value :  5.25962e-06
 Reference value :  5.26161e-06
 Reference value :  5.26427e-06
 Reference value :  5.26850e-06
 Reference value :  5.27697e-06
 Reference value :  5.28997e-06
 Reference value :  5.31478e-06
 Reference value :  5.35743e-06
 Reference value :  5.43249e-06
 Reference value :  5.50000e-06
 Reference value :  5.50001e-06
 Reference value :  5.50003e-06
 Reference value :  5.50007e-06
 Reference value :  5.50010e-06
 Reference value :  5.50010e-06
 Reference value :  5.50011e-06
 Reference value :  5.50013e-06
 Reference value :  5.50017e-06
 Reference value :  5.50024e-06
 Reference value :  5.50036e-06
 Reference value :  5.50057e-06
 Reference value :  5.50098e-06
 Reference value :  5.50148e-06
 Reference value :  5.50200e-06
 Reference value :  5.50249e-06
 Reference value :  5.50307e-06
 Reference value :  5.50360e-06
 Reference value :  5.50436e-06
 Reference value :  5.50506e-06
 Reference value :  5.50584e-06
 Reference value :  5.50684e-06
 Reference value :  5.50797e-06
 Reference value :  5.50930e-06
 Reference value :  5.51044e-06
 Reference value :  5.51164e-06
 Reference value :  5.51313e-06
 Reference value :  5.51460e-06
 Reference value :  5.51617e-06
 Reference value :  5.51931e-06
 Reference value :  5.52401e-06
 Reference value :  5.53198e-06
 Reference value :  5.54656e-06
 Reference value :  5.57066e-06
 Reference value :  5.61600e-06
 Reference value :  5.70669e-06
 Reference value :  5.75010e-06
 Reference value :  5.75011e-06
 Reference value :  5.75013e-06
 Reference value :  5.75017e-06
 Reference value :  5.75020e-06
 Reference value :  5.75020e-06
 Reference value :  5.75020e-06
 Reference value :  5.75021e-06
 Reference value :  5.75021e-06
 Reference value :  5.75023e-06
 Reference value :  5.75025e-06
 Reference value :  5.75031e-06
 Reference value :  5.75041e-06
 Reference value :  5.75062e-06
 Reference value :  5.75096e-06
 Reference value :  5.75131e-06
 Reference value :  5.75177e-06
 Reference value :  5.75228e-06
 Reference value :  5.75299e-06
 Reference value :  5.75378e-06
 Reference value :  5.75452e-06
 Reference value :  5.75537e-06
 Reference value :  5.75611e-06
 Reference value :  5.75689e-06
 Reference value :  5.75774e-06
 Reference value :  5.75872e-06
 Reference value :  5.76047e-06
 Reference value :  5.76288e-06
 Reference value :  5.76598e-06
 Reference value :  5.77218e-06
 Reference value :  5.78457e-06
 Reference value :  5.80503e-06
 Reference value :  5.84594e-06
 Reference value :  5.92777e-06
 Reference value :  6.00000e-06
 Reference value :  6.00001e-06
 Reference value :  6.00003e-06
 Reference value :  6.00007e-06
 Reference value :  6.00010e-06
 Reference value :  6.00010e-06
 Reference value :  6.00011e-06
 Reference value :  6.00013e-06
 Reference value :  6.00017e-06
 Reference value :  6.00024e-06
 Reference value :  6.00036e-06
 Reference value :  6.00057e-06
 Reference value :  6.00098e-06
 Reference value :  6.00148e-06
 Reference value :  6.00200e-06
 Reference value :  6.00248e-06
 Reference value :  6.00307e-06
 Reference value :  6.00360e-06
 Reference value :  6.00428e-06
 Reference value :  6.00498e-06
 Reference value :  6.00564e-06
 Reference value :  6.00655e-06
 Reference value :  6.00729e-06
 Reference value :  6.00809e-06
 Reference value :  6.00889e-06
 Reference value :  6.00990e-06
 Reference value :  6.01132e-06
 Reference value :  6.01330e-06
 Reference value :  6.01543e-06
 Reference value :  6.01717e-06
 Reference value :  6.01866e-06
 Reference value :  6.02012e-06
 Reference value :  6.02153e-06
 Reference value :  6.02308e-06
 Reference value :  6.02468e-06
 Reference value :  6.02646e-06
 Reference value :  6.02878e-06
 Reference value :  6.03243e-06
 Reference value :  6.03973e-06
 Reference value :  6.04916e-06
 Reference value :  6.06183e-06
 Reference value :  6.07344e-06
 Reference value :  6.09154e-06
 Reference value :  6.11553e-06
 Reference value :  6.16352e-06
 Reference value :  6.20691e-06
 Reference value :  6.25010e-06
 Reference value :  6.25011e-06
 Reference value :  6.25013e-06
 Reference value :  6.25017e-06
 Reference value :  6.25020e-06
 Reference value :  6.25020e-06
 Reference value :  6.25020e-06
 Reference value :  6.25021e-06
 Reference value :  6.25021e-06
 Reference value :  6.25023e-06
 Reference value :  6.25025e-06
 Reference value :  6.25031e-06
 Reference value :  6.25041e-06
 Reference value :  6.25062e-06
 Reference value :  6.25096e-06
 Reference value :  6.25131e-06
 Reference value :  6.25177e-06
 Reference value :  6.25229e-06
 Reference value :  6.25299e-06
 Reference value :  6.25379e-06
 Reference value :  6.25454e-06
 Reference value :  6.25540e-06
 Reference value :  6.25624e-06
 Reference value :  6.25707e-06
 Reference value :  6.25834e-06
 Reference value :  6.25965e-06
 Reference value :  6.26165e-06
 Reference value :  6.26431e-06
 Reference value :  6.26860e-06
 Reference value :  6.27718e-06
 Reference value :  6.29028e-06
 Reference value :  6.31542e-06
 Reference value :  6.35844e-06
 Reference value :  6.43428e-06
 Reference value :  6.50000e-06
 Reference value :  6.50001e-06
 Reference value :  6.50003e-06
 Reference value :  6.50007e-06
 Reference value :  6.50010e-06
 Reference value :  6.50010e-06
 Reference value :  6.50011e-06
 Reference value :  6.50013e-06
 Reference value :  6.50017e-06
 Reference value :  6.50024e-06
 Reference value :  6.50036e-06
 Reference value :  6.50057e-06
 Reference value :  6.50099e-06
 Reference value :  6.50148e-06
 Reference value :  6.50200e-06
 Reference value :  6.50248e-06
 Reference value :  6.50306e-06
 Reference value :  6.50359e-06
 Reference value :  6.50428e-06
 Reference value :  6.50499e-06
 Reference value :  6.50575e-06
 Reference value :  6.50676e-06
 Reference value :  6.50784e-06
 Reference value :  6.50923e-06
 Reference value :  6.51024e-06
 Reference value :  6.51136e-06
 Reference value :  6.51249e-06
 Reference value :  6.51370e-06
 Reference value :  6.51523e-06
 Reference value :  6.51686e-06
 Reference value :  6.51988e-06
 Reference value :  6.52417e-06
 Reference value :  6.53182e-06
 Reference value :  6.54556e-06
 Reference value :  6.56925e-06
 Reference value :  6.61385e-06
 Reference value :  6.69340e-06
 Reference value :  6.75010e-06
 Reference value :  6.75011e-06
 Reference value :  6.75013e-06
 Reference value :  6.75017e-06
 Reference value :  6.75020e-06
 Reference value :  6.75020e-06
 Reference value :  6.75020e-06
 Reference value :  6.75021e-06
 Reference value :  6.75021e-06
 Reference value :  6.75023e-06
 Reference value :  6.75025e-06
 Reference value :  6.75031e-06
 Reference value :  6.75041e-06
 Reference value :  6.75063e-06
 Reference value :  6.75097e-06
 Reference value :  6.75132e-06
 Reference value :  6.75179e-06
 Reference value :  6.75231e-06
 Reference value :  6.75300e-06
 Reference value :  6.75382e-06
 Reference value :  6.75452e-06
 Reference value :  6.75534e-06
 Reference value :  6.75605e-06
 Reference value :  6.75681e-06
 Reference value :  6.75765e-06
 Reference value :  6.75861e-06
 Reference value :  6.76035e-06
 Reference value :  6.76274e-06
 Reference value :  6.76576e-06
 Reference value :  6.77160e-06
 Reference value :  6.78328e-06
 Reference value :  6.80304e-06
 Reference value :  6.84257e-06
 Reference value :  6.92162e-06
 Reference value :  7.00000e-06
 Reference value :  7.00001e-06
 Reference value :  7.00003e-06
 Reference value :  7.00007e-06
 Reference value :  7.00010e-06
 Reference value :  7.00010e-06
 Reference value :  7.00011e-06
 Reference value :  7.00013e-06
 Reference value :  7.00017e-06
 Reference value :  7.00024e-06
 Reference value :  7.00036e-06
 Reference value :  7.00057e-06
 Reference value :  7.00099e-06
 Reference value :  7.00148e-06
 Reference value :  7.00200e-06
 Reference value :  7.00248e-06
 Reference value :  7.00306e-06
 Reference value :  7.00360e-06
 Reference value :  7.00428e-06
 Reference value :  7.00498e-06
 Reference value :  7.00563e-06
 Reference value :  7.00655e-06
 Reference value :  7.00740e-06
 Reference value :  7.00820e-06
 Reference value :  7.00907e-06
 Reference value :  7.01011e-06
 Reference value :  7.01155e-06
 Reference value :  7.01358e-06
 Reference value :  7.01568e-06
 Reference value :  7.01744e-06
 Reference value :  7.01892e-06
 Reference value :  7.02038e-06
 Reference value :  7.02184e-06
 Reference value :  7.02337e-06
 Reference value :  7.02521e-06
 Reference value :  7.02688e-06
 Reference value :  7.02927e-06
 Reference value :  7.03270e-06
 Reference value :  7.03751e-06
 Reference value :  7.04260e-06
 Reference value :  7.04847e-06
 Reference value :  7.05881e-06
 Reference value :  7.06904e-06
 Reference value :  7.08334e-06
 Reference value :  7.09844e-06
 Reference value :  7.10894e-06
 Reference value :  7.11878e-06
 Reference value :  7.13413e-06
 Reference value :  7.15291e-06
 Reference value :  7.17545e-06
 Reference value :  7.19391e-06
 Reference value :  7.21601e-06
 Reference value :  7.25010e-06
 Reference value :  7.25011e-06
 Reference value :  7.25013e-06
 Reference value :  7.25017e-06
 Reference value :  7.25020e-06
 Reference value :  7.25020e-06
 Reference value :  7.25020e-06
 Reference value :  7.25021e-06
 Reference value :  7.25021e-06
 Reference value :  7.25023e-06
 Reference value :  7.25025e-06
 Reference value :  7.25031e-06
 Reference value :  7.25041e-06
 Reference value :  7.25062e-06
 Reference value :  7.25096e-06
 Reference value :  7.25131e-06
 Reference value :  7.25177e-06
 Reference value :  7.25229e-06
 Reference value :  7.25299e-06
 Reference value :  7.25378e-06
 Reference value :  7.25445e-06
 Reference value :  7.25522e-06
 Reference value :  7.25592e-06
 Reference value :  7.25668e-06
 Reference value :  7.25779e-06
 Reference value :  7.25895e-06
 Reference value :  7.26082e-06
 Reference value :  7.26325e-06
 Reference value :  7.26650e-06
 Reference value :  7.27299e-06
 Reference value :  7.28568e-06
 Reference value :  7.30705e-06
 Reference value :  7.34978e-06
 Reference value :  7.43526e-06
 Reference value :  7.50000e-06
 Reference value :  7.50001e-06
 Reference value :  7.50003e-06
 Reference value :  7.50007e-06
 Reference value :  7.50010e-06
 Reference value :  7.50010e-06
 Reference value :  7.50011e-06
 Reference value :  7.50013e-06
 Reference value :  7.50017e-06
 Reference value :  7.50024e-06
 Reference value :  7.50036e-06
 Reference value :  7.50057e-06
 Reference value :  7.50098e-06
 Reference value :  7.50146e-06
 Reference value :  7.50198e-06
 Reference value :  7.50244e-06
 Reference value :  7.50298e-06
 Reference value :  7.50350e-06
 Reference value :  7.50419e-06
 Reference value :  7.50490e-06
 Reference value :  7.50562e-06
 Reference value :  7.50664e-06
 Reference value :  7.50766e-06
 Reference value :  7.50942e-06
 Reference value :  7.51052e-06
 Reference value :  7.51175e-06
 Reference value :  7.51296e-06
 Reference value :  7.51427e-06
 Reference value :  7.51626e-06
 Reference value :  7.51811e-06
 Reference value :  7.52180e-06
 Reference value :  7.52680e-06
 Reference value :  7.53530e-06
 Reference value :  7.55055e-06
 Reference value :  7.57525e-06
 Reference value :  7.62086e-06
 Reference value :  7.69905e-06
 Reference value :  7.75010e-06
 Reference value :  7.75011e-06
 Reference value :  7.75013e-06
 Reference value :  7.75017e-06
 Reference value :  7.75020e-06
 Reference value :  7.75020e-06
 Reference value :  7.75020e-06
 Reference value :  7.75021e-06
 Reference value :  7.75021e-06
 Reference value :  7.75023e-06
 Reference value :  7.75025e-06
 Reference value :  7.75031e-06
 Reference value :  7.75041e-06
 Reference value :  7.75063e-06
 Reference value :  7.75097e-06
 Reference value :  7.75132e-06
 Reference value :  7.75179e-06
 Reference value :  7.75231e-06
 Reference value :  7.75300e-06
 Reference value :  7.75381e-06
 Reference value :  7.75449e-06
 Reference value :  7.75529e-06
 Reference value :  7.75601e-06
 Reference value :  7.75675e-06
 Reference value :  7.75759e-06
 Reference value :  7.75854e-06
 Reference value :  7.75948e-06
 Reference value :  7.76083e-06
 Reference value :  7.76227e-06
 Reference value :  7.76428e-06
 Reference value :  7.76683e-06
 Reference value :  7.77038e-06
 Reference value :  7.77748e-06
 Reference value :  7.78689e-06
 Reference value :  7.80422e-06
 Reference value :  7.83887e-06
 Reference value :  7.89859e-06
 Reference value :  8.00000e-06
 Reference value :  8.00001e-06
 Reference value :  8.00003e-06
 Reference value :  8.00007e-06
 Reference value :  8.00010e-06
 Reference value :  8.00010e-06
 Reference value :  8.00011e-06
 Reference value :  8.00013e-06
 Reference value :  8.00017e-06
 Reference value :  8.00024e-06
 Reference value :  8.00036e-06
 Reference value :  8.00057e-06
 Reference value :  8.00098e-06
 Reference value :  8.00146e-06
 Reference value :  8.00198e-06
 Reference value :  8.00246e-06
 Reference value :  8.00304e-06
 Reference value :  8.00356e-06
 Reference value :  8.00430e-06
 Reference value :  8.00499e-06
 Reference value :  8.00566e-06
 Reference value :  8.00653e-06
 Reference value :  8.00738e-06
 Reference value :  8.00824e-06
 Reference value :  8.00906e-06
 Reference value :  8.01014e-06
 Reference value :  8.01152e-06
 Reference value :  8.01279e-06
 Reference value :  8.01415e-06
 Reference value :  8.01558e-06
 Reference value :  8.01698e-06
 Reference value :  8.01848e-06
 Reference value :  8.02040e-06
 Reference value :  8.02242e-06
 Reference value :  8.02483e-06
 Reference value :  8.02805e-06
 Reference value :  8.03188e-06
 Reference value :  8.03708e-06
 Reference value :  8.04254e-06
 Reference value :  8.04657e-06
 Reference value :  8.05101e-06
 Reference value :  8.05569e-06
 Reference value :  8.06186e-06
 Reference value :  8.06778e-06
 Reference value :  8.07962e-06
 Reference value :  8.09811e-06
 Reference value :  8.12776e-06
 Reference value :  8.18174e-06
 Reference value :  8.25010e-06
 Reference value :  8.25011e-06
 Reference value :  8.25013e-06
 Reference value :  8.25017e-06
 Reference value :  8.25020e-06
 Reference value :  8.25020e-06
 Reference value :  8.25020e-06
 Reference value :  8.25021e-06
 Reference value :  8.25021e-06
 Reference value :  8.25023e-06
 Reference value :  8.25025e-06
 Reference value :  8.25031e-06
 Reference value :  8.25041e-06
 Reference value :  8.25062e-06
 Reference value :  8.25096e-06
 Reference value :  8.25131e-06
 Reference value :  8.25177e-06
 Reference value :  8.25228e-06
 Reference value :  8.25298e-06
 Reference value :  8.25378e-06
 Reference value :  8.25486e-06
 Reference value :  8.25584e-06
 Reference value :  8.25701e-06
 Reference value :  8.25825e-06
 Reference value :  8.26007e-06
 Reference value :  8.26203e-06
 Reference value :  8.26513e-06
 Reference value :  8.26948e-06
 Reference value :  8.27818e-06
 Reference value :  8.29558e-06
 Reference value :  8.33038e-06
 Reference value :  8.39997e-06
 Reference value :  8.50000e-06
 Reference value :  8.50000e-06
 Reference value :  8.50000e-06
 Reference value :  8.50000e-06
 Reference value :  8.50000e-06
 Reference value :  8.50000e-06
 Reference value :  8.50000e-06
 Reference value :  8.50000e-06
 Reference value :  8.50000e-06
 Reference value :  8.50001e-06
 Reference value :  8.50001e-06
 Reference value :  8.50002e-06
 Reference value :  8.50004e-06
 Reference value :  8.50008e-06
 Reference value :  8.50010e-06
 Reference value :  8.50010e-06
 Reference value :  8.50011e-06
 Reference value :  8.50012e-06
 Reference value :  8.50014e-06
 Reference value :  8.50018e-06
 Reference value :  8.50027e-06
 Reference value :  8.50044e-06
 Reference value :  8.50079e-06
 Reference value :  8.50127e-06
 Reference value :  8.50194e-06
 Reference value :  8.50264e-06
 Reference value :  8.50324e-06
 Reference value :  8.50386e-06
 Reference value :  8.50449e-06
 Reference value :  8.50517e-06
 Reference value :  8.50607e-06
 Reference value :  8.50702e-06
 Reference value :  8.50850e-06
 Reference value :  8.51026e-06
 Reference value :  8.51141e-06
 Reference value :  8.51280e-06
 Reference value :  8.51469e-06
 Reference value :  8.51661e-06
 Reference value :  8.51900e-06
 Reference value :  8.52296e-06
 Reference value :  8.52792e-06
 Reference value :  8.53122e-06
 Reference value :  8.53414e-06
 Reference value :  8.53693e-06
 Reference value :  8.53947e-06
 Reference value :  8.54152e-06
 Reference value :  8.54353e-06
 Reference value :  8.54544e-06
 Reference value :  8.54743e-06
 Reference value :  8.54986e-06
 Reference value :  8.55269e-06
 Reference value :  8.55653e-06
 Reference value :  8.56057e-06
 Reference value :  8.56552e-06
 Reference value :  8.57332e-06
 Reference value :  8.58084e-06
 Reference value :  8.59525e-06
 Reference value :  8.61047e-06
 Reference value :  8.64075e-06
 Reference value :  8.68166e-06
 Reference value :  8.75010e-06
 Reference value :  8.75011e-06
 Reference value :  8.75013e-06
 Reference value :  8.75017e-06
 Reference value :  8.75020e-06
 Reference value :  8.75020e-06
 Reference value :  8.75020e-06
 Reference value :  8.75021e-06
 Reference value :  8.75021e-06
 Reference value :  8.75023e-06
 Reference value :  8.75025e-06
 Reference value :  8.75031e-06
 Reference value :  8.75041e-06
 Reference value :  8.75062e-06
 Reference value :  8.75096e-06
 Reference value :  8.75132e-06
 Reference value :  8.75179e-06
 Reference value :  8.75231e-06
 Reference value :  8.75295e-06
 Reference value :  8.75380e-06
 Reference value :  8.75468e-06
 Reference value :  8.75550e-06
 Reference value :  8.75632e-06
 Reference value :  8.75718e-06
 Reference value :  8.75848e-06
 Reference value :  8.75989e-06
 Reference value :  8.76192e-06
 Reference value :  8.76470e-06
 Reference value :  8.76957e-06
 Reference value :  8.77838e-06
 Reference value :  8.79264e-06
 Reference value :  8.81908e-06
 Reference value :  8.86411e-06
 Reference value :  8.94392e-06
 Reference value :  9.00000e-06
 Reference value :  9.00001e-06
 Reference value :  9.00003e-06
 Reference value :  9.00007e-06
 Reference value :  9.00010e-06
 Reference value :  9.00010e-06
 Reference value :  9.00011e-06
 Reference value :  9.00013e-06
 Reference value :  9.00017e-06
 Reference value :  9.00024e-06
 Reference value :  9.00036e-06
 Reference value :  9.00059e-06
 Reference value :  9.00101e-06
 Reference value :  9.00149e-06
 Reference value :  9.00202e-06
 Reference value :  9.00251e-06
 Reference value :  9.00309e-06
 Reference value :  9.00368e-06
 Reference value :  9.00437e-06
 Reference value :  9.00507e-06
 Reference value :  9.00581e-06
 Reference value :  9.00684e-06
 Reference value :  9.00790e-06
 Reference value :  9.00979e-06
 Reference value :  9.01186e-06
 Reference value :  9.01336e-06
 Reference value :  9.01507e-06
 Reference value :  9.01680e-06
 Reference value :  9.01847e-06
 Reference value :  9.02019e-06
 Reference value :  9.02242e-06
 Reference value :  9.02542e-06
 Reference value :  9.02977e-06
 Reference value :  9.03607e-06
 Reference value :  9.04760e-06
 Reference value :  9.06466e-06
 Reference value :  9.09430e-06
 Reference value :  9.14268e-06
 Reference value :  9.22214e-06
 Reference value :  9.25010e-06
 Reference value :  9.25011e-06
 Reference value :  9.25013e-06
 Reference value :  9.25017e-06
 Reference value :  9.25020e-06
 Reference value :  9.25020e-06
 Reference value :  9.25020e-06
 Reference value :  9.25021e-06
 Reference value :  9.25021e-06
 Reference value :  9.25023e-06
 Reference value :  9.25025e-06
 Reference value :  9.25031e-06
 Reference value :  9.25041e-06
 Reference value :  9.25063e-06
 Reference value :  9.25097e-06
 Reference value :  9.25133e-06
 Reference value :  9.25180e-06
 Reference value :  9.25231e-06
 Reference value :  9.25304e-06
 Reference value :  9.25386e-06
 Reference value :  9.25456e-06
 Reference value :  9.25538e-06
 Reference value :  9.25610e-06
 Reference value :  9.25686e-06
 Reference value :  9.25773e-06
 Reference value :  9.25872e-06
 Reference value :  9.26046e-06
 Reference value :  9.26289e-06
 Reference value :  9.26597e-06
 Reference value :  9.27213e-06
 Reference value :  9.28424e-06
 Reference value :  9.30410e-06
 Reference value :  9.34382e-06
 Reference value :  9.42325e-06
 Reference value :  9.50000e-06
 Reference value :  9.50001e-06
 Reference value :  9.50003e-06
 Reference value :  9.50007e-06
 Reference value :  9.50010e-06
 Reference value :  9.50010e-06
 Reference value :  9.50011e-06
 Reference value :  9.50013e-06
 Reference value :  9.50017e-06
 Reference value :  9.50024e-06
 Reference value :  9.50036e-06
 Reference value :  9.50059e-06
 Reference value :  9.50101e-06
 Reference value :  9.50149e-06
 Reference value :  9.50202e-06
 Reference value :  9.50251e-06
 Reference value :  9.50309e-06
 Reference value :  9.50363e-06
 Reference value :  9.50440e-06
 Reference value :  9.50503e-06
 Reference value :  9.50570e-06
 Reference value :  9.50650e-06
 Reference value :  9.50738e-06
 Reference value :  9.50815e-06
 Reference value :  9.50899e-06
 Reference value :  9.51011e-06
 Reference value :  9.51139e-06
 Reference value :  9.51326e-06
 Reference value :  9.51537e-06
 Reference value :  9.51709e-06
 Reference value :  9.51860e-06
 Reference value :  9.51971e-06
 Reference value :  9.52075e-06
 Reference value :  9.52169e-06
 Reference value :  9.52275e-06
 Reference value :  9.52386e-06
 Reference value :  9.52538e-06
 Reference value :  9.52717e-06
 Reference value :  9.52994e-06
 Reference value :  9.53488e-06
 Reference value :  9.53908e-06
 Reference value :  9.54291e-06
 Reference value :  9.54659e-06
 Reference value :  9.55021e-06
 Reference value :  9.55245e-06
 Reference value :  9.55469e-06
 Reference value :  9.55768e-06
 Reference value :  9.56047e-06
 Reference value :  9.56343e-06
 Reference value :  9.56648e-06
 Reference value :  9.56976e-06
 Reference value :  9.57634e-06
 Reference value :  9.58350e-06
 Reference value :  9.59086e-06
 Reference value :  9.59843e-06
 Reference value :  9.60645e-06
 Reference value :  9.62248e-06
 Reference value :  9.64856e-06
 Reference value :  9.69759e-06
 Reference value :  9.75010e-06
 Reference value :  9.75011e-06
 Reference value :  9.75013e-06
 Reference value :  9.75017e-06
 Reference value :  9.75020e-06
 Reference value :  9.75020e-06
 Reference value :  9.75020e-06
 Reference value :  9.75021e-06
 Reference value :  9.75021e-06
 Reference value :  9.75023e-06
 Reference value :  9.75025e-06
 Reference value :  9.75031e-06
 Reference value :  9.75041e-06
 Reference value :  9.75063e-06
 Reference value :  9.75097e-06
 Reference value :  9.75132e-06
 Reference value :  9.75179e-06
 Reference value :  9.75230e-06
 Reference value :  9.75298e-06
 Reference value :  9.75381e-06
 Reference value :  9.75449e-06
 Reference value :  9.75528e-06
 Reference value :  9.75600e-06
 Reference value :  9.75678e-06
 Reference value :  9.75793e-06
 Reference value :  9.75913e-06
 Reference value :  9.76099e-06
 Reference value :  9.76352e-06
 Reference value :  9.76689e-06
 Reference value :  9.77362e-06
 Reference value :  9.78586e-06
 Reference value :  9.80677e-06
 Reference value :  9.84742e-06
 Reference value :  9.92872e-06
 Reference value :  1.00000e-05
 Reference value :  1.00000e-05
 Reference value :  1.00000e-05
 Reference value :  1.00001e-05
 Reference value :  1.00001e-05
 Reference value :  1.00001e-05
 Reference value :  1.00001e-05
 Reference value :  1.00001e-05
 Reference value :  1.00002e-05
 Reference value :  1.00002e-05
 Reference value :  1.00004e-05
 Reference value :  1.00006e-05
 Reference value :  1.00010e-05
 Reference value :  1.00015e-05
 Reference value :  1.00020e-05
 Reference value :  1.00025e-05
 Reference value :  1.00030e-05
 Reference value :  1.00035e-05
 Reference value :  1.00042e-05
 Reference value :  1.00049e-05
 Reference value :  1.00057e-05
 Reference value :  1.00067e-05
 Reference value :  1.00077e-05
 Reference value :  1.00092e-05
 Reference value :  1.00102e-05
 Reference value :  1.00114e-05
 Reference value :  1.00124e-05
 Reference value :  1.00137e-05
 Reference value :  1.00150e-05
 Reference value :  1.00164e-05
 Reference value :  1.00192e-05
 Reference value :  1.00243e-05
 Reference value :  1.00328e-05
 Reference value :  1.00499e-05
 Reference value :  1.00818e-05
 Reference value :  1.01457e-05
 Reference value :  1.02501e-05
 Reference value :  1.02501e-05
 Reference value :  1.02501e-05
 Reference value :  1.02502e-05
 Reference value :  1.02502e-05
 Reference value :  1.02502e-05
 Reference value :  1.02502e-05
 Reference value :  1.02502e-05
 Reference value :  1.02502e-05
 Reference value :  1.02502e-05
 Reference value :  1.02503e-05
 Reference value :  1.02503e-05
 Reference value :  1.02504e-05
 Reference value :  1.02506e-05
 Reference value :  1.02510e-05
 Reference value :  1.02513e-05
 Reference value :  1.02518e-05
 Reference value :  1.02523e-05
 Reference value :  1.02530e-05
 Reference value :  1.02538e-05
 Reference value :  1.02545e-05
 Reference value :  1.02554e-05
 Reference value :  1.02562e-05
 Reference value :  1.02569e-05
 Reference value :  1.02578e-05
 Reference value :  1.02588e-05
 Reference value :  1.02599e-05
 Reference value :  1.02611e-05
 Reference value :  1.02629e-05
 Reference value :  1.02648e-05
 Reference value :  1.02678e-05
 Reference value :  1.02719e-05
 Reference value :  1.02802e-05
 Reference value :  1.02968e-05
 Reference value :  1.03275e-05
 Reference value :  1.03889e-05
 Reference value :  1.05000e-05
 Reference value :  1.05000e-05
 Reference value :  1.05000e-05
 Reference value :  1.05001e-05
 Reference value :  1.05001e-05
 Reference value :  1.05001e-05
 Reference value :  1.05001e-05
 Reference value :  1.05001e-05
 Reference value :  1.05002e-05
 Reference value :  1.05002e-05
 Reference value :  1.05004e-05
 Reference value :  1.05006e-05
 Reference value :  1.05010e-05
 Reference value :  1.05015e-05
 Reference value :  1.05020e-05
 Reference value :  1.05025e-05
 Reference value :  1.05031e-05
 Reference value :  1.05036e-05
 Reference value :  1.05043e-05
 Reference value :  1.05050e-05
 Reference value :  1.05057e-05
 Reference value :  1.05065e-05
 Reference value :  1.05074e-05
 Reference value :  1.05082e-05
 Reference value :  1.05090e-05
 Reference value :  1.05102e-05
 Reference value :  1.05114e-05
 Reference value :  1.05133e-05
 Reference value :  1.05146e-05
 Reference value :  1.05160e-05
 Reference value :  1.05173e-05
 Reference value :  1.05186e-05
 Reference value :  1.05196e-05
 Reference value :  1.05207e-05
 Reference value :  1.05218e-05
 Reference value :  1.05228e-05
 Reference value :  1.05240e-05
 Reference value :  1.05257e-05
 Reference value :  1.05274e-05
 Reference value :  1.05305e-05
 Reference value :  1.05352e-05
 Reference value :  1.05422e-05
 Reference value :  1.05544e-05
 Reference value :  1.05746e-05
 Reference value :  1.06136e-05
 Reference value :  1.06597e-05
 Reference value :  1.07141e-05
 Reference value :  1.07501e-05
 Reference value :  1.07501e-05
 Reference value :  1.07501e-05
 Reference value :  1.07502e-05
 Reference value :  1.07502e-05
 Reference value :  1.07502e-05
 Reference value :  1.07502e-05
 Reference value :  1.07502e-05
 Reference value :  1.07502e-05
 Reference value :  1.07502e-05
 Reference value :  1.07503e-05
 Reference value :  1.07503e-05
 Reference value :  1.07504e-05
 Reference value :  1.07506e-05
 Reference value :  1.07510e-05
 Reference value :  1.07513e-05
 Reference value :  1.07518e-05
 Reference value :  1.07523e-05
 Reference value :  1.07530e-05
 Reference value :  1.07538e-05
 Reference value :  1.07545e-05
 Reference value :  1.07553e-05
 Reference value :  1.07561e-05
 Reference value :  1.07569e-05
 Reference value :  1.07582e-05
 Reference value :  1.07594e-05
 Reference value :  1.07614e-05
 Reference value :  1.07640e-05
 Reference value :  1.07677e-05
 Reference value :  1.07753e-05
 Reference value :  1.07877e-05
 Reference value :  1.08103e-05
 Reference value :  1.08509e-05
 Reference value :  1.09227e-05
 Reference value :  1.09925e-05
 Reference value :  1.10000e-05
 Reference value :  1.10000e-05
 Reference value :  1.10000e-05
 Reference value :  1.10001e-05
 Reference value :  1.10001e-05
 Reference value :  1.10001e-05
 Reference value :  1.10001e-05
 Reference value :  1.10001e-05
 Reference value :  1.10002e-05
 Reference value :  1.10002e-05
 Reference value :  1.10004e-05
 Reference value :  1.10006e-05
 Reference value :  1.10010e-05
 Reference value :  1.10015e-05
 Reference value :  1.10020e-05
 Reference value :  1.10025e-05
 Reference value :  1.10030e-05
 Reference value :  1.10035e-05
 Reference value :  1.10042e-05
 Reference value :  1.10049e-05
 Reference value :  1.10057e-05
 Reference value :  1.10067e-05
 Reference value :  1.10077e-05
 Reference value :  1.10092e-05
 Reference value :  1.10102e-05
 Reference value :  1.10113e-05
 Reference value :  1.10124e-05
 Reference value :  1.10136e-05
 Reference value :  1.10148e-05
 Reference value :  1.10162e-05
 Reference value :  1.10189e-05
 Reference value :  1.10239e-05
 Reference value :  1.10325e-05
 Reference value :  1.10497e-05
 Reference value :  1.10824e-05
 Reference value :  1.11479e-05
 Reference value :  1.12501e-05
 Reference value :  1.12501e-05
 Reference value :  1.12501e-05
 Reference value :  1.12502e-05
 Reference value :  1.12502e-05
 Reference value :  1.12502e-05
 Reference value :  1.12502e-05
 Reference value :  1.12502e-05
 Reference value :  1.12502e-05
 Reference value :  1.12502e-05
 Reference value :  1.12503e-05
 Reference value :  1.12503e-05
 Reference value :  1.12504e-05
 Reference value :  1.12506e-05
 Reference value :  1.12510e-05
 Reference value :  1.12513e-05
 Reference value :  1.12518e-05
 Reference value :  1.12523e-05
 Reference value :  1.12530e-05
 Reference value :  1.12538e-05
 Reference value :  1.12545e-05
 Reference value :  1.12554e-05
 Reference value :  1.12562e-05
 Reference value :  1.12569e-05
 Reference value :  1.12578e-05
 Reference value :  1.12588e-05
 Reference value :  1.12599e-05
 Reference value :  1.12611e-05
 Reference value :  1.12631e-05
 Reference value :  1.12649e-05
 Reference value :  1.12680e-05
 Reference value :  1.12720e-05
 Reference value :  1.12801e-05
 Reference value :  1.12962e-05
 Reference value :  1.13256e-05
 Reference value :  1.13843e-05
 Reference value :  1.15000e-05
 Reference value :  1.15000e-05
 Reference value :  1.15000e-05
 Reference value :  1.15001e-05
 Reference value :  1.15001e-05
 Reference value :  1.15001e-05
 Reference value :  1.15001e-05
 Reference value :  1.15001e-05
 Reference value :  1.15002e-05
 Reference value :  1.15002e-05
 Reference value :  1.15004e-05
 Reference value :  1.15006e-05
 Reference value :  1.15010e-05
 Reference value :  1.15015e-05
 Reference value :  1.15020e-05
 Reference value :  1.15025e-05
 Reference value :  1.15031e-05
 Reference value :  1.15036e-05
 Reference value :  1.15043e-05
 Reference value :  1.15050e-05
 Reference value :  1.15057e-05
 Reference value :  1.15065e-05
 Reference value :  1.15074e-05
 Reference value :  1.15082e-05
 Reference value :  1.15090e-05
 Reference value :  1.15102e-05
 Reference value :  1.15115e-05
 Reference value :  1.15131e-05
 Reference value :  1.15146e-05
 Reference value :  1.15160e-05
 Reference value :  1.15174e-05
 Reference value :  1.15185e-05
 Reference value :  1.15194e-05
 Reference value :  1.15205e-05
 Reference value :  1.15215e-05
 Reference value :  1.15226e-05
 Reference value :  1.15238e-05
 Reference value :  1.15253e-05
 Reference value :  1.15271e-05
 Reference value :  1.15300e-05
 Reference value :  1.15349e-05
 Reference value :  1.15423e-05
 Reference value :  1.15555e-05
 Reference value :  1.15766e-05
 Reference value :  1.15974e-05
 Reference value :  1.16168e-05
 Reference value :  1.16333e-05
 Reference value :  1.16514e-05
 Reference value :  1.16645e-05
 Reference value :  1.16733e-05
 Reference value :  1.16827e-05
 Reference value :  1.16913e-05
 Reference value :  1.17044e-05
 Reference value :  1.17242e-05
 Reference value :  1.17501e-05
 Reference value :  1.17501e-05
 Reference value :  1.17501e-05
 Reference value :  1.17502e-05
 Reference value :  1.17502e-05
 Reference value :  1.17502e-05
 Reference value :  1.17502e-05
 Reference value :  1.17502e-05
 Reference value :  1.17502e-05
 Reference value :  1.17502e-05
 Reference value :  1.17503e-05
 Reference value :  1.17503e-05
 Reference value :  1.17504e-05
 Reference value :  1.17506e-05
 Reference value :  1.17510e-05
 Reference value :  1.17513e-05
 Reference value :  1.17518e-05
 Reference value :  1.17523e-05
 Reference value :  1.17530e-05
 Reference value :  1.17538e-05
 Reference value :  1.17545e-05
 Reference value :  1.17554e-05
 Reference value :  1.17562e-05
 Reference value :  1.17570e-05
 Reference value :  1.17583e-05
 Reference value :  1.17596e-05
 Reference value :  1.17615e-05
 Reference value :  1.17642e-05
 Reference value :  1.17682e-05
 Reference value :  1.17764e-05
 Reference value :  1.17892e-05
 Reference value :  1.18131e-05
 Reference value :  1.18550e-05
 Reference value :  1.19286e-05
 Reference value :  1.20000e-05
 Reference value :  1.20000e-05
 Reference value :  1.20000e-05
 Reference value :  1.20001e-05
 Reference value :  1.20001e-05
 Reference value :  1.20001e-05
 Reference value :  1.20001e-05
 Reference value :  1.20001e-05
 Reference value :  1.20002e-05
 Reference value :  1.20002e-05
 Reference value :  1.20004e-05
 Reference value :  1.20006e-05
 Reference value :  1.20010e-05
 Reference value :  1.20015e-05
 Reference value :  1.20020e-05
 Reference value :  1.20025e-05
 Reference value :  1.20030e-05
 Reference value :  1.20035e-05
 Reference value :  1.20042e-05
 Reference value :  1.20049e-05
 Reference value :  1.20057e-05
 Reference value :  1.20067e-05
 Reference value :  1.20077e-05
 Reference value :  1.20092e-05
 Reference value :  1.20102e-05
 Reference value :  1.20113e-05
 Reference value :  1.20122e-05
 Reference value :  1.20134e-05
 Reference value :  1.20145e-05
 Reference value :  1.20159e-05
 Reference value :  1.20185e-05
 Reference value :  1.20235e-05
 Reference value :  1.20323e-05
 Reference value :  1.20498e-05
 Reference value :  1.20846e-05
 Reference value :  1.21542e-05
 Reference value :  1.22501e-05
 Reference value :  1.22501e-05
 Reference value :  1.22501e-05
 Reference value :  1.22502e-05
 Reference value :  1.22502e-05
 Reference value :  1.22502e-05
 Reference value :  1.22502e-05
 Reference value :  1.22502e-05
 Reference value :  1.22502e-05
 Reference value :  1.22502e-05
 Reference value :  1.22503e-05
 Reference value :  1.22503e-05
 Reference value :  1.22504e-05
 Reference value :  1.22506e-05
 Reference value :  1.22510e-05
 Reference value :  1.22513e-05
 Reference value :  1.22518e-05
 Reference value :  1.22523e-05
 Reference value :  1.22530e-05
 Reference value :  1.22538e-05
 Reference value :  1.22545e-05
 Reference value :  1.22554e-05
 Reference value :  1.22562e-05
 Reference value :  1.22569e-05
 Reference value :  1.22578e-05
 Reference value :  1.22588e-05
 Reference value :  1.22599e-05
 Reference value :  1.22611e-05
 Reference value :  1.22629e-05
 Reference value :  1.22648e-05
 Reference value :  1.22677e-05
 Reference value :  1.22719e-05
 Reference value :  1.22801e-05
 Reference value :  1.22965e-05
 Reference value :  1.23269e-05
 Reference value :  1.23876e-05
 Reference value :  1.25000e-05
 Reference value :  1.25000e-05
 Reference value :  1.25000e-05
 Reference value :  1.25001e-05
 Reference value :  1.25001e-05
 Reference value :  1.25001e-05
 Reference value :  1.25001e-05
 Reference value :  1.25001e-05
 Reference value :  1.25002e-05
 Reference value :  1.25002e-05
 Reference value :  1.25004e-05
 Reference value :  1.25006e-05
 Reference value :  1.25010e-05
 Reference value :  1.25015e-05
 Reference value :  1.25020e-05
 Reference value :  1.25025e-05
 Reference value :  1.25031e-05
 Reference value :  1.25036e-05
 Reference value :  1.25043e-05
 Reference value :  1.25050e-05
 Reference value :  1.25057e-05
 Reference value :  1.25065e-05
 Reference value :  1.25074e-05
 Reference value :  1.25082e-05
 Reference value :  1.25090e-05
 Reference value :  1.25101e-05
 Reference value :  1.25115e-05
 Reference value :  1.25124e-05
 Reference value :  1.25136e-05
 Reference value :  1.25147e-05
 Reference value :  1.25160e-05
 Reference value :  1.25172e-05
 Reference value :  1.25181e-05
 Reference value :  1.25190e-05
 Reference value :  1.25201e-05
 Reference value :  1.25212e-05
 Reference value :  1.25223e-05
 Reference value :  1.25236e-05
 Reference value :  1.25249e-05
 Reference value :  1.25269e-05
 Reference value :  1.25293e-05
 Reference value :  1.25342e-05
 Reference value :  1.25435e-05
 Reference value :  1.25532e-05
 Reference value :  1.25630e-05
 Reference value :  1.25697e-05
 Reference value :  1.25760e-05
 Reference value :  1.25828e-05
 Reference value :  1.25900e-05
 Reference value :  1.26001e-05
 Reference value :  1.26113e-05
 Reference value :  1.26262e-05
 Reference value :  1.26447e-05
 Reference value :  1.26680e-05
 Reference value :  1.26979e-05
 Reference value :  1.27356e-05
 Reference value :  1.27501e-05
 Reference value :  1.27501e-05
 Reference value :  1.27501e-05
 Reference value :  1.27502e-05
 Reference value :  1.27502e-05
 Reference value :  1.27502e-05
 Reference value :  1.27502e-05
 Reference value :  1.27502e-05
 Reference value :  1.27502e-05
 Reference value :  1.27502e-05
 Reference value :  1.27503e-05
 Reference value :  1.27503e-05
 Reference value :  1.27504e-05
 Reference value :  1.27506e-05
 Reference value :  1.27510e-05
 Reference value :  1.27513e-05
 Reference value :  1.27518e-05
 Reference value :  1.27523e-05
 Reference value :  1.27530e-05
 Reference value :  1.27538e-05
 Reference value :  1.27545e-05
 Reference value :  1.27554e-05
 Reference value :  1.27562e-05
 Reference value :  1.27571e-05
 Reference value :  1.27584e-05
 Reference value :  1.27597e-05
 Reference value :  1.27617e-05
 Reference value :  1.27643e-05
 Reference value :  1.27685e-05
 Reference value :  1.27770e-05
 Reference value :  1.27900e-05
 Reference value :  1.28070e-05
 Reference value :  1.28230e-05
 Reference value :  1.28410e-05
 Reference value :  1.28526e-05
 Reference value :  1.28646e-05
 Reference value :  1.28815e-05
 Reference value :  1.29000e-05
 Reference value :  1.29146e-05
 Reference value :  1.29306e-05
 Reference value :  1.29516e-05
 Reference value :  1.29762e-05
 Reference value :  1.30000e-05
 Reference value :  1.30000e-05
 Reference value :  1.30000e-05
 Reference value :  1.30001e-05
 Reference value :  1.30001e-05
 Reference value :  1.30001e-05
 Reference value :  1.30001e-05
 Reference value :  1.30001e-05
 Reference value :  1.30002e-05
 Reference value :  1.30002e-05
 Reference value :  1.30004e-05
 Reference value :  1.30006e-05
 Reference value :  1.30010e-05
 Reference value :  1.30015e-05
 Reference value :  1.30020e-05
 Reference value :  1.30025e-05
 Reference value :  1.30030e-05
 Reference value :  1.30035e-05
 Reference value :  1.30042e-05
 Reference value :  1.30049e-05
 Reference value :  1.30057e-05
 Reference value :  1.30067e-05
 Reference value :  1.30077e-05
 Reference value :  1.30091e-05
 Reference value :  1.30100e-05
 Reference value :  1.30111e-05
 Reference value :  1.30121e-05
 Reference value :  1.30132e-05
 Reference value :  1.30143e-05
 Reference value :  1.30157e-05
 Reference value :  1.30184e-05
 Reference value :  1.30226e-05
 Reference value :  1.30309e-05
 Reference value :  1.30475e-05
 Reference value :  1.30787e-05
 Reference value :  1.31410e-05
 Reference value :  1.32501e-05
 Reference value :  1.32501e-05
 Reference value :  1.32501e-05
 Reference value :  1.32502e-05
 Reference value :  1.32502e-05
 Reference value :  1.32502e-05
 Reference value :  1.32502e-05
 Reference value :  1.32502e-05
 Reference value :  1.32502e-05
 Reference value :  1.32502e-05
 Reference value :  1.32503e-05
 Reference value :  1.32503e-05
 Reference value :  1.32504e-05
 Reference value :  1.32506e-05
 Reference value :  1.32510e-05
 Reference value :  1.32513e-05
 Reference value :  1.32518e-05
 Reference value :  1.32523e-05
 Reference value :  1.32530e-05
 Reference value :  1.32538e-05
 Reference value :  1.32545e-05
 Reference value :  1.32554e-05
 Reference value :  1.32562e-05
 Reference value :  1.32569e-05
 Reference value :  1.32578e-05
 Reference value :  1.32588e-05
 Reference value :  1.32599e-05
 Reference value :  1.32611e-05
 Reference value :  1.32629e-05
 Reference value :  1.32648e-05
 Reference value :  1.32677e-05
 Reference value :  1.32718e-05
 Reference value :  1.32800e-05
 Reference value :  1.32963e-05
 Reference value :  1.33265e-05
 Reference value :  1.33868e-05
 Reference value :  1.35000e-05
 Reference value :  1.35000e-05
 Reference value :  1.35000e-05
 Reference value :  1.35001e-05
 Reference value :  1.35001e-05
 Reference value :  1.35001e-05
 Reference value :  1.35001e-05
 Reference value :  1.35001e-05
 Reference value :  1.35002e-05
 Reference value :  1.35002e-05
 Reference value :  1.35004e-05
 Reference value :  1.35006e-05
 Reference value :  1.35010e-05
 Reference value :  1.35015e-05
 Reference value :  1.35020e-05
 Reference value :  1.35025e-05
 Reference value :  1.35031e-05
 Reference value :  1.35036e-05
 Reference value :  1.35043e-05
 Reference value :  1.35050e-05
 Reference value :  1.35057e-05
 Reference value :  1.35065e-05
 Reference value :  1.35074e-05
 Reference value :  1.35082e-05
 Reference value :  1.35091e-05
 Reference value :  1.35101e-05
 Reference value :  1.35115e-05
 Reference value :  1.35125e-05
 Reference value :  1.35136e-05
 Reference value :  1.35148e-05
 Reference value :  1.35160e-05
 Reference value :  1.35172e-05
 Reference value :  1.35181e-05
 Reference value :  1.35189e-05
 Reference value :  1.35200e-05
 Reference value :  1.35211e-05
 Reference value :  1.35222e-05
 Reference value :  1.35234e-05
 Reference value :  1.35247e-05
 Reference value :  1.35268e-05
 Reference value :  1.35289e-05
 Reference value :  1.35311e-05
 Reference value :  1.35327e-05
 Reference value :  1.35343e-05
 Reference value :  1.35357e-05
 Reference value :  1.35374e-05
 Reference value :  1.35399e-05
 Reference value :  1.35428e-05
 Reference value :  1.35475e-05
 Reference value :  1.35538e-05
 Reference value :  1.35624e-05
 Reference value :  1.35717e-05
 Reference value :  1.35894e-05
 Reference value :  1.36102e-05
 Reference value :  1.36517e-05
 Reference value :  1.37154e-05
 Reference value :  1.37501e-05
 Reference value :  1.37501e-05
 Reference value :  1.37501e-05
 Reference value :  1.37502e-05
 Reference value :  1.37502e-05
 Reference value :  1.37502e-05
 Reference value :  1.37502e-05
 Reference value :  1.37502e-05
 Reference value :  1.37502e-05
 Reference value :  1.37502e-05
 Reference value :  1.37503e-05
 Reference value :  1.37503e-05
 Reference value :  1.37504e-05
 Reference value :  1.37506e-05
 Reference value :  1.37510e-05
 Reference value :  1.37513e-05
 Reference value :  1.37518e-05
 Reference value :  1.37523e-05
 Reference value :  1.37530e-05
 Reference value :  1.37538e-05
 Reference value :  1.37545e-05
 Reference value :  1.37554e-05
 Reference value :  1.37562e-05
 Reference value :  1.37571e-05
 Reference value :  1.37583e-05
 Reference value :  1.37596e-05
 Reference value :  1.37616e-05
 Reference value :  1.37643e-05
 Reference value :  1.37685e-05
 Reference value :  1.37770e-05
 Reference value :  1.37899e-05
 Reference value :  1.38147e-05
 Reference value :  1.38569e-05
 Reference value :  1.39312e-05
 Reference value :  1.40000e-05
 Reference value :  1.40000e-05
 Reference value :  1.40000e-05
 Reference value :  1.40001e-05
 Reference value :  1.40001e-05
 Reference value :  1.40001e-05
 Reference value :  1.40001e-05
 Reference value :  1.40001e-05
 Reference value :  1.40002e-05
 Reference value :  1.40002e-05
 Reference value :  1.40004e-05
 Reference value :  1.40006e-05
 Reference value :  1.40010e-05
 Reference value :  1.40015e-05
 Reference value :  1.40020e-05
 Reference value :  1.40025e-05
 Reference value :  1.40031e-05
 Reference value :  1.40036e-05
 Reference value :  1.40044e-05
 Reference value :  1.40051e-05
 Reference value :  1.40058e-05
 Reference value :  1.40068e-05
 Reference value :  1.40080e-05
 Reference value :  1.40093e-05
 Reference value :  1.40104e-05
 Reference value :  1.40116e-05
 Reference value :  1.40131e-05
 Reference value :  1.40146e-05
 Reference value :  1.40162e-05
 Reference value :  1.40193e-05
 Reference value :  1.40240e-05
 Reference value :  1.40320e-05
 Reference value :  1.40466e-05
 Reference value :  1.40707e-05
 Reference value :  1.41160e-05
 Reference value :  1.42066e-05
 Reference value :  1.42501e-05
 Reference value :  1.42501e-05
 Reference value :  1.42501e-05
 Reference value :  1.42502e-05
 Reference value :  1.42502e-05
 Reference value :  1.42502e-05
 Reference value :  1.42502e-05
 Reference value :  1.42502e-05
 Reference value :  1.42502e-05
 Reference value :  1.42502e-05
 Reference value :  1.42503e-05
 Reference value :  1.42503e-05
 Reference value :  1.42504e-05
 Reference value :  1.42506e-05
 Reference value :  1.42510e-05
 Reference value :  1.42513e-05
 Reference value :  1.42518e-05
 Reference value :  1.42523e-05
 Reference value :  1.42530e-05
 Reference value :  1.42538e-05
 Reference value :  1.42545e-05
 Reference value :  1.42554e-05
 Reference value :  1.42561e-05
 Reference value :  1.42569e-05
 Reference value :  1.42577e-05
 Reference value :  1.42587e-05
 Reference value :  1.42605e-05
 Reference value :  1.42629e-05
 Reference value :  1.42660e-05
 Reference value :  1.42722e-05
 Reference value :  1.42845e-05
 Reference value :  1.43049e-05
 Reference value :  1.43456e-05
 Reference value :  1.44270e-05
 Reference value :  1.45000e-05
 Reference value :  1.45000e-05
 Reference value :  1.45000e-05
 Reference value :  1.45001e-05
 Reference value :  1.45001e-05
 Reference value :  1.45001e-05
 Reference value :  1.45001e-05
 Reference value :  1.45001e-05
 Reference value :  1.45002e-05
 Reference value :  1.45002e-05
 Reference value :  1.45004e-05
 Reference value :  1.45006e-05
 Reference value :  1.45010e-05
 Reference value :  1.45015e-05
 Reference value :  1.45020e-05
 Reference value :  1.45025e-05
 Reference value :  1.45031e-05
 Reference value :  1.45036e-05
 Reference value :  1.45043e-05
 Reference value :  1.45050e-05
 Reference value :  1.45056e-05
 Reference value :  1.45065e-05
 Reference value :  1.45073e-05
 Reference value :  1.45081e-05
 Reference value :  1.45089e-05
 Reference value :  1.45099e-05
 Reference value :  1.45113e-05
 Reference value :  1.45133e-05
 Reference value :  1.45154e-05
 Reference value :  1.45172e-05
 Reference value :  1.45187e-05
 Reference value :  1.45202e-05
 Reference value :  1.45216e-05
 Reference value :  1.45231e-05
 Reference value :  1.45248e-05
 Reference value :  1.45266e-05
 Reference value :  1.45289e-05
 Reference value :  1.45327e-05
 Reference value :  1.45403e-05
 Reference value :  1.45501e-05
 Reference value :  1.45626e-05
 Reference value :  1.45744e-05
 Reference value :  1.45943e-05
 Reference value :  1.46227e-05
 Reference value :  1.46794e-05
 Reference value :  1.47498e-05
 Reference value :  1.47501e-05
 Reference value :  1.47501e-05
 Reference value :  1.47501e-05
 Reference value :  1.47502e-05
 Reference value :  1.47502e-05
 Reference value :  1.47502e-05
 Reference value :  1.47502e-05
 Reference value :  1.47502e-05
 Reference value :  1.47502e-05
 Reference value :  1.47502e-05
 Reference value :  1.47503e-05
 Reference value :  1.47503e-05
 Reference value :  1.47504e-05
 Reference value :  1.47506e-05
 Reference value :  1.47510e-05
 Reference value :  1.47513e-05
 Reference value :  1.47518e-05
 Reference value :  1.47523e-05
 Reference value :  1.47530e-05
 Reference value :  1.47538e-05
 Reference value :  1.47545e-05
 Reference value :  1.47554e-05
 Reference value :  1.47562e-05
 Reference value :  1.47571e-05
 Reference value :  1.47584e-05
 Reference value :  1.47597e-05
 Reference value :  1.47617e-05
 Reference value :  1.47643e-05
 Reference value :  1.47686e-05
 Reference value :  1.47773e-05
 Reference value :  1.47903e-05
 Reference value :  1.48155e-05
 Reference value :  1.48583e-05
 Reference value :  1.49338e-05
 Reference value :  1.50000e-05
 Reference value :  1.50000e-05
 Reference value :  1.50000e-05
 Reference value :  1.50001e-05
 Reference value :  1.50001e-05
 Reference value :  1.50001e-05
 Reference value :  1.50001e-05
 Reference value :  1.50001e-05
 Reference value :  1.50002e-05
 Reference value :  1.50002e-05
 Reference value :  1.50004e-05
 Reference value :  1.50006e-05
 Reference value :  1.50010e-05
 Reference value :  1.50015e-05
 Reference value :  1.50020e-05
 Reference value :  1.50025e-05
 Reference value :  1.50031e-05
 Reference value :  1.50036e-05
 Reference value :  1.50043e-05
 Reference value :  1.50050e-05
 Reference value :  1.50058e-05
 Reference value :  1.50068e-05
 Reference value :  1.50078e-05
 Reference value :  1.50092e-05
 Reference value :  1.50103e-05
 Reference value :  1.50114e-05
 Reference value :  1.50125e-05
 Reference value :  1.50137e-05
 Reference value :  1.50153e-05
 Reference value :  1.50169e-05
 Reference value :  1.50199e-05
 Reference value :  1.50243e-05
 Reference value :  1.50319e-05
 Reference value :  1.50457e-05
 Reference value :  1.50694e-05
 Reference value :  1.51138e-05
 Reference value :  1.51929e-05
 Reference value :  1.52501e-05
 Reference value :  1.52501e-05
 Reference value :  1.52501e-05
 Reference value :  1.52502e-05
 Reference value :  1.52502e-05
 Reference value :  1.52502e-05
 Reference value :  1.52502e-05
 Reference value :  1.52502e-05
 Reference value :  1.52502e-05
 Reference value :  1.52502e-05
 Reference value :  1.52503e-05
 Reference value :  1.52503e-05
 Reference value :  1.52504e-05
 Reference value :  1.52506e-05
 Reference value :  1.52510e-05
[...]
 Reference value :  1.40250e-04
 Reference value :  1.40250e-04
 Reference value :  1.40250e-04
 Reference value :  1.40250e-04
 Reference value :  1.40250e-04
 Reference value :  1.40250e-04
 Reference value :  1.40251e-04
 Reference value :  1.40251e-04
 Reference value :  1.40251e-04
 Reference value :  1.40252e-04
 Reference value :  1.40252e-04
 Reference value :  1.40253e-04
 Reference value :  1.40254e-04
 Reference value :  1.40255e-04
 Reference value :  1.40255e-04
 Reference value :  1.40256e-04
 Reference value :  1.40257e-04
 Reference value :  1.40258e-04
 Reference value :  1.40259e-04
 Reference value :  1.40261e-04
 Reference value :  1.40264e-04
 Reference value :  1.40268e-04
 Reference value :  1.40275e-04
 Reference value :  1.40288e-04
 Reference value :  1.40310e-04
 Reference value :  1.40351e-04
 Reference value :  1.40423e-04
 Reference value :  1.40500e-04
 Reference value :  1.40500e-04
 Reference value :  1.40500e-04
 Reference value :  1.40500e-04
 Reference value :  1.40500e-04
 Reference value :  1.40500e-04
 Reference value :  1.40500e-04
 Reference value :  1.40500e-04
 Reference value :  1.40500e-04
 Reference value :  1.40500e-04
 Reference value :  1.40500e-04
 Reference value :  1.40501e-04
 Reference value :  1.40501e-04
 Reference value :  1.40501e-04
 Reference value :  1.40502e-04
 Reference value :  1.40502e-04
 Reference value :  1.40503e-04
 Reference value :  1.40504e-04
 Reference value :  1.40504e-04
 Reference value :  1.40505e-04
 Reference value :  1.40506e-04
 Reference value :  1.40507e-04
 Reference value :  1.40508e-04
 Reference value :  1.40509e-04
 Reference value :  1.40510e-04
 Reference value :  1.40511e-04
 Reference value :  1.40513e-04
 Reference value :  1.40514e-04
 Reference value :  1.40515e-04
 Reference value :  1.40517e-04
 Reference value :  1.40520e-04
 Reference value :  1.40524e-04
 Reference value :  1.40532e-04
 Reference value :  1.40545e-04
 Reference value :  1.40568e-04
 Reference value :  1.40612e-04
 Reference value :  1.40689e-04
 Reference value :  1.40750e-04
 Reference value :  1.40750e-04
 Reference value :  1.40750e-04
 Reference value :  1.40750e-04
 Reference value :  1.40750e-04
 Reference value :  1.40750e-04
 Reference value :  1.40750e-04
 Reference value :  1.40750e-04
 Reference value :  1.40750e-04
 Reference value :  1.40750e-04
 Reference value :  1.40750e-04
 Reference value :  1.40750e-04
 Reference value :  1.40750e-04
 Reference value :  1.40751e-04
 Reference value :  1.40751e-04
 Reference value :  1.40751e-04
 Reference value :  1.40752e-04
 Reference value :  1.40752e-04
 Reference value :  1.40753e-04
 Reference value :  1.40754e-04
 Reference value :  1.40755e-04
 Reference value :  1.40755e-04
 Reference value :  1.40756e-04
 Reference value :  1.40757e-04
 Reference value :  1.40758e-04
 Reference value :  1.40759e-04
 Reference value :  1.40760e-04
 Reference value :  1.40763e-04
 Reference value :  1.40766e-04
 Reference value :  1.40772e-04
 Reference value :  1.40783e-04
 Reference value :  1.40803e-04
 Reference value :  1.40842e-04
 Reference value :  1.40921e-04
 Reference value :  1.41000e-04
 Reference value :  1.41000e-04
 Reference value :  1.41000e-04
 Reference value :  1.41000e-04
 Reference value :  1.41000e-04
 Reference value :  1.41000e-04
 Reference value :  1.41000e-04
 Reference value :  1.41000e-04
 Reference value :  1.41000e-04
 Reference value :  1.41000e-04
 Reference value :  1.41000e-04
 Reference value :  1.41001e-04
 Reference value :  1.41001e-04
 Reference value :  1.41001e-04
 Reference value :  1.41002e-04
 Reference value :  1.41002e-04
 Reference value :  1.41003e-04
 Reference value :  1.41004e-04
 Reference value :  1.41004e-04
 Reference value :  1.41005e-04
 Reference value :  1.41006e-04
 Reference value :  1.41007e-04
 Reference value :  1.41007e-04
 Reference value :  1.41008e-04
 Reference value :  1.41009e-04
 Reference value :  1.41010e-04
 Reference value :  1.41012e-04
 Reference value :  1.41014e-04
 Reference value :  1.41016e-04
 Reference value :  1.41017e-04
 Reference value :  1.41019e-04
 Reference value :  1.41020e-04
 Reference value :  1.41021e-04
 Reference value :  1.41023e-04
 Reference value :  1.41024e-04
 Reference value :  1.41026e-04
 Reference value :  1.41028e-04
 Reference value :  1.41031e-04
 Reference value :  1.41036e-04
 Reference value :  1.41044e-04
 Reference value :  1.41057e-04
 Reference value :  1.41071e-04
 Reference value :  1.41088e-04
 Reference value :  1.41104e-04
 Reference value :  1.41130e-04
 Reference value :  1.41168e-04
 Reference value :  1.41204e-04
 Reference value :  1.41250e-04
 Reference value :  1.41250e-04
 Reference value :  1.41250e-04
 Reference value :  1.41250e-04
 Reference value :  1.41250e-04
 Reference value :  1.41250e-04
 Reference value :  1.41250e-04
 Reference value :  1.41250e-04
 Reference value :  1.41250e-04
 Reference value :  1.41250e-04
 Reference value :  1.41250e-04
 Reference value :  1.41250e-04
 Reference value :  1.41250e-04
 Reference value :  1.41251e-04
 Reference value :  1.41251e-04
 Reference value :  1.41251e-04
 Reference value :  1.41252e-04
 Reference value :  1.41252e-04
 Reference value :  1.41253e-04
 Reference value :  1.41254e-04
 Reference value :  1.41255e-04
 Reference value :  1.41255e-04
 Reference value :  1.41256e-04
 Reference value :  1.41257e-04
 Reference value :  1.41258e-04
 Reference value :  1.41259e-04
 Reference value :  1.41261e-04
 Reference value :  1.41264e-04
 Reference value :  1.41268e-04
 Reference value :  1.41276e-04
 Reference value :  1.41288e-04
 Reference value :  1.41311e-04
 Reference value :  1.41352e-04
 Reference value :  1.41423e-04
 Reference value :  1.41500e-04
 Reference value :  1.41500e-04
 Reference value :  1.41500e-04
 Reference value :  1.41500e-04
 Reference value :  1.41500e-04
 Reference value :  1.41500e-04
 Reference value :  1.41500e-04
 Reference value :  1.41500e-04
 Reference value :  1.41500e-04
 Reference value :  1.41500e-04
 Reference value :  1.41500e-04
 Reference value :  1.41501e-04
 Reference value :  1.41501e-04
 Reference value :  1.41501e-04
 Reference value :  1.41502e-04
 Reference value :  1.41502e-04
 Reference value :  1.41503e-04
 Reference value :  1.41504e-04
 Reference value :  1.41504e-04
 Reference value :  1.41505e-04
 Reference value :  1.41506e-04
 Reference value :  1.41507e-04
 Reference value :  1.41508e-04
 Reference value :  1.41509e-04
 Reference value :  1.41510e-04
 Reference value :  1.41512e-04
 Reference value :  1.41513e-04
 Reference value :  1.41514e-04
 Reference value :  1.41516e-04
 Reference value :  1.41518e-04
 Reference value :  1.41522e-04
 Reference value :  1.41528e-04
 Reference value :  1.41540e-04
 Reference value :  1.41559e-04
 Reference value :  1.41594e-04
 Reference value :  1.41655e-04
 Reference value :  1.41750e-04
 Reference value :  1.41750e-04
 Reference value :  1.41750e-04
 Reference value :  1.41750e-04
 Reference value :  1.41750e-04
 Reference value :  1.41750e-04
 Reference value :  1.41750e-04
 Reference value :  1.41750e-04
 Reference value :  1.41750e-04
 Reference value :  1.41750e-04
 Reference value :  1.41750e-04
 Reference value :  1.41750e-04
 Reference value :  1.41750e-04
 Reference value :  1.41751e-04
 Reference value :  1.41751e-04
 Reference value :  1.41751e-04
 Reference value :  1.41752e-04
 Reference value :  1.41752e-04
 Reference value :  1.41753e-04
 Reference value :  1.41754e-04
 Reference value :  1.41755e-04
 Reference value :  1.41755e-04
 Reference value :  1.41756e-04
 Reference value :  1.41757e-04
 Reference value :  1.41758e-04
 Reference value :  1.41759e-04
 Reference value :  1.41760e-04
 Reference value :  1.41763e-04
 Reference value :  1.41766e-04
 Reference value :  1.41772e-04
 Reference value :  1.41784e-04
 Reference value :  1.41805e-04
 Reference value :  1.41846e-04
 Reference value :  1.41927e-04
 Reference value :  1.42000e-04
 Reference value :  1.42000e-04
 Reference value :  1.42000e-04
 Reference value :  1.42000e-04
 Reference value :  1.42000e-04
 Reference value :  1.42000e-04
 Reference value :  1.42000e-04
 Reference value :  1.42000e-04
 Reference value :  1.42000e-04
 Reference value :  1.42000e-04
 Reference value :  1.42000e-04
 Reference value :  1.42001e-04
 Reference value :  1.42001e-04
 Reference value :  1.42001e-04
 Reference value :  1.42002e-04
 Reference value :  1.42002e-04
 Reference value :  1.42003e-04
 Reference value :  1.42004e-04
 Reference value :  1.42004e-04
 Reference value :  1.42005e-04
 Reference value :  1.42006e-04
 Reference value :  1.42007e-04
 Reference value :  1.42007e-04
 Reference value :  1.42008e-04
 Reference value :  1.42009e-04
 Reference value :  1.42010e-04
 Reference value :  1.42011e-04
 Reference value :  1.42013e-04
 Reference value :  1.42015e-04
 Reference value :  1.42017e-04
 Reference value :  1.42019e-04
 Reference value :  1.42020e-04
 Reference value :  1.42022e-04
 Reference value :  1.42023e-04
 Reference value :  1.42025e-04
 Reference value :  1.42027e-04
 Reference value :  1.42029e-04
 Reference value :  1.42033e-04
 Reference value :  1.42040e-04
 Reference value :  1.42049e-04
 Reference value :  1.42057e-04
 Reference value :  1.42067e-04
 Reference value :  1.42081e-04
 Reference value :  1.42105e-04
 Reference value :  1.42153e-04
 Reference value :  1.42220e-04
 Reference value :  1.42250e-04
 Reference value :  1.42250e-04
 Reference value :  1.42250e-04
 Reference value :  1.42250e-04
 Reference value :  1.42250e-04
 Reference value :  1.42250e-04
 Reference value :  1.42250e-04
 Reference value :  1.42250e-04
 Reference value :  1.42250e-04
 Reference value :  1.42250e-04
 Reference value :  1.42250e-04
 Reference value :  1.42250e-04
 Reference value :  1.42250e-04
 Reference value :  1.42251e-04
 Reference value :  1.42251e-04
 Reference value :  1.42251e-04
 Reference value :  1.42252e-04
 Reference value :  1.42252e-04
 Reference value :  1.42253e-04
 Reference value :  1.42254e-04
 Reference value :  1.42255e-04
 Reference value :  1.42255e-04
 Reference value :  1.42256e-04
 Reference value :  1.42257e-04
 Reference value :  1.42258e-04
 Reference value :  1.42260e-04
 Reference value :  1.42262e-04
 Reference value :  1.42264e-04
 Reference value :  1.42269e-04
 Reference value :  1.42277e-04
 Reference value :  1.42290e-04
 Reference value :  1.42315e-04
 Reference value :  1.42358e-04
 Reference value :  1.42433e-04
 Reference value :  1.42500e-04
 Reference value :  1.42500e-04
 Reference value :  1.42500e-04
 Reference value :  1.42500e-04
 Reference value :  1.42500e-04
 Reference value :  1.42500e-04
 Reference value :  1.42500e-04
 Reference value :  1.42500e-04
 Reference value :  1.42500e-04
 Reference value :  1.42500e-04
 Reference value :  1.42500e-04
 Reference value :  1.42501e-04
 Reference value :  1.42501e-04
 Reference value :  1.42501e-04
 Reference value :  1.42502e-04
 Reference value :  1.42502e-04
 Reference value :  1.42503e-04
 Reference value :  1.42504e-04
 Reference value :  1.42504e-04
 Reference value :  1.42505e-04
 Reference value :  1.42506e-04
 Reference value :  1.42507e-04
 Reference value :  1.42508e-04
 Reference value :  1.42509e-04
 Reference value :  1.42510e-04
 Reference value :  1.42511e-04
 Reference value :  1.42512e-04
 Reference value :  1.42514e-04
 Reference value :  1.42515e-04
 Reference value :  1.42517e-04
 Reference value :  1.42520e-04
 Reference value :  1.42524e-04
 Reference value :  1.42532e-04
 Reference value :  1.42546e-04
 Reference value :  1.42569e-04
 Reference value :  1.42614e-04
 Reference value :  1.42693e-04
 Reference value :  1.42750e-04
 Reference value :  1.42750e-04
 Reference value :  1.42750e-04
 Reference value :  1.42750e-04
 Reference value :  1.42750e-04
 Reference value :  1.42750e-04
 Reference value :  1.42750e-04
 Reference value :  1.42750e-04
 Reference value :  1.42750e-04
 Reference value :  1.42750e-04
 Reference value :  1.42750e-04
 Reference value :  1.42750e-04
 Reference value :  1.42750e-04
 Reference value :  1.42751e-04
 Reference value :  1.42751e-04
 Reference value :  1.42751e-04
 Reference value :  1.42752e-04
 Reference value :  1.42752e-04
 Reference value :  1.42753e-04
 Reference value :  1.42754e-04
 Reference value :  1.42755e-04
 Reference value :  1.42755e-04
 Reference value :  1.42756e-04
 Reference value :  1.42757e-04
 Reference value :  1.42758e-04
 Reference value :  1.42759e-04
 Reference value :  1.42760e-04
 Reference value :  1.42763e-04
 Reference value :  1.42766e-04
 Reference value :  1.42772e-04
 Reference value :  1.42783e-04
 Reference value :  1.42803e-04
 Reference value :  1.42843e-04
 Reference value :  1.42922e-04
 Reference value :  1.43000e-04
 Reference value :  1.43000e-04
 Reference value :  1.43000e-04
 Reference value :  1.43000e-04
 Reference value :  1.43000e-04
 Reference value :  1.43000e-04
 Reference value :  1.43000e-04
 Reference value :  1.43000e-04
 Reference value :  1.43000e-04
 Reference value :  1.43000e-04
 Reference value :  1.43000e-04
 Reference value :  1.43001e-04
 Reference value :  1.43001e-04
 Reference value :  1.43001e-04
 Reference value :  1.43002e-04
 Reference value :  1.43002e-04
 Reference value :  1.43003e-04
 Reference value :  1.43004e-04
 Reference value :  1.43004e-04
 Reference value :  1.43005e-04
 Reference value :  1.43006e-04
 Reference value :  1.43007e-04
 Reference value :  1.43007e-04
 Reference value :  1.43008e-04
 Reference value :  1.43009e-04
 Reference value :  1.43010e-04
 Reference value :  1.43012e-04
 Reference value :  1.43014e-04
 Reference value :  1.43016e-04
 Reference value :  1.43017e-04
 Reference value :  1.43019e-04
 Reference value :  1.43020e-04
 Reference value :  1.43022e-04
 Reference value :  1.43023e-04
 Reference value :  1.43025e-04
 Reference value :  1.43027e-04
 Reference value :  1.43029e-04
 Reference value :  1.43033e-04
 Reference value :  1.43037e-04
 Reference value :  1.43042e-04
 Reference value :  1.43048e-04
 Reference value :  1.43058e-04
 Reference value :  1.43076e-04
 Reference value :  1.43109e-04
 Reference value :  1.43174e-04
 Reference value :  1.43250e-04
 Reference value :  1.43250e-04
 Reference value :  1.43250e-04
 Reference value :  1.43250e-04
 Reference value :  1.43250e-04
 Reference value :  1.43250e-04
 Reference value :  1.43250e-04
 Reference value :  1.43250e-04
 Reference value :  1.43250e-04
 Reference value :  1.43250e-04
 Reference value :  1.43250e-04
 Reference value :  1.43250e-04
 Reference value :  1.43250e-04
 Reference value :  1.43251e-04
 Reference value :  1.43251e-04
 Reference value :  1.43251e-04
 Reference value :  1.43252e-04
 Reference value :  1.43252e-04
 Reference value :  1.43253e-04
 Reference value :  1.43254e-04
 Reference value :  1.43255e-04
 Reference value :  1.43255e-04
 Reference value :  1.43256e-04
 Reference value :  1.43257e-04
 Reference value :  1.43258e-04
 Reference value :  1.43259e-04
 Reference value :  1.43261e-04
 Reference value :  1.43264e-04
 Reference value :  1.43267e-04
 Reference value :  1.43275e-04
 Reference value :  1.43287e-04
 Reference value :  1.43309e-04
 Reference value :  1.43349e-04
 Reference value :  1.43425e-04
 Reference value :  1.43500e-04
 Reference value :  1.43500e-04
 Reference value :  1.43500e-04
 Reference value :  1.43500e-04
 Reference value :  1.43500e-04
 Reference value :  1.43500e-04
 Reference value :  1.43500e-04
 Reference value :  1.43500e-04
 Reference value :  1.43500e-04
 Reference value :  1.43500e-04
 Reference value :  1.43500e-04
 Reference value :  1.43501e-04
 Reference value :  1.43501e-04
 Reference value :  1.43501e-04
 Reference value :  1.43502e-04
 Reference value :  1.43502e-04
 Reference value :  1.43503e-04
 Reference value :  1.43504e-04
 Reference value :  1.43504e-04
 Reference value :  1.43505e-04
 Reference value :  1.43506e-04
 Reference value :  1.43507e-04
 Reference value :  1.43508e-04
 Reference value :  1.43509e-04
 Reference value :  1.43510e-04
 Reference value :  1.43511e-04
 Reference value :  1.43512e-04
 Reference value :  1.43514e-04
 Reference value :  1.43515e-04
 Reference value :  1.43516e-04
 Reference value :  1.43519e-04
 Reference value :  1.43523e-04
 Reference value :  1.43531e-04
 Reference value :  1.43547e-04
 Reference value :  1.43576e-04
 Reference value :  1.43634e-04
 Reference value :  1.43749e-04
 Reference value :  1.43750e-04
 Reference value :  1.43750e-04
 Reference value :  1.43750e-04
 Reference value :  1.43750e-04
 Reference value :  1.43750e-04
 Reference value :  1.43750e-04
 Reference value :  1.43750e-04
 Reference value :  1.43750e-04
 Reference value :  1.43750e-04
 Reference value :  1.43750e-04
 Reference value :  1.43750e-04
 Reference value :  1.43750e-04
 Reference value :  1.43750e-04
 Reference value :  1.43751e-04
 Reference value :  1.43751e-04
 Reference value :  1.43751e-04
 Reference value :  1.43752e-04
 Reference value :  1.43752e-04
 Reference value :  1.43753e-04
 Reference value :  1.43754e-04
 Reference value :  1.43754e-04
 Reference value :  1.43755e-04
 Reference value :  1.43756e-04
 Reference value :  1.43757e-04
 Reference value :  1.43758e-04
 Reference value :  1.43759e-04
 Reference value :  1.43760e-04
 Reference value :  1.43763e-04
 Reference value :  1.43766e-04
 Reference value :  1.43771e-04
 Reference value :  1.43783e-04
 Reference value :  1.43802e-04
 Reference value :  1.43841e-04
 Reference value :  1.43918e-04
 Reference value :  1.44000e-04
 Reference value :  1.44000e-04
 Reference value :  1.44000e-04
 Reference value :  1.44000e-04
 Reference value :  1.44000e-04
 Reference value :  1.44000e-04
 Reference value :  1.44000e-04
 Reference value :  1.44000e-04
 Reference value :  1.44000e-04
 Reference value :  1.44000e-04
 Reference value :  1.44000e-04
 Reference value :  1.44001e-04
 Reference value :  1.44001e-04
 Reference value :  1.44001e-04
 Reference value :  1.44002e-04
 Reference value :  1.44002e-04
 Reference value :  1.44003e-04
 Reference value :  1.44004e-04
 Reference value :  1.44004e-04
 Reference value :  1.44005e-04
 Reference value :  1.44006e-04
 Reference value :  1.44007e-04
 Reference value :  1.44007e-04
 Reference value :  1.44008e-04
 Reference value :  1.44009e-04
 Reference value :  1.44010e-04
 Reference value :  1.44012e-04
 Reference value :  1.44014e-04
 Reference value :  1.44016e-04
 Reference value :  1.44018e-04
 Reference value :  1.44020e-04
 Reference value :  1.44023e-04
 Reference value :  1.44026e-04
 Reference value :  1.44030e-04
 Reference value :  1.44036e-04
 Reference value :  1.44045e-04
 Reference value :  1.44060e-04
 Reference value :  1.44084e-04
 Reference value :  1.44123e-04
 Reference value :  1.44199e-04
 Reference value :  1.44250e-04
 Reference value :  1.44250e-04
 Reference value :  1.44250e-04
 Reference value :  1.44250e-04
 Reference value :  1.44250e-04
 Reference value :  1.44250e-04
 Reference value :  1.44250e-04
 Reference value :  1.44250e-04
 Reference value :  1.44250e-04
 Reference value :  1.44250e-04
 Reference value :  1.44250e-04
 Reference value :  1.44250e-04
 Reference value :  1.44250e-04
 Reference value :  1.44251e-04
 Reference value :  1.44251e-04
 Reference value :  1.44251e-04
 Reference value :  1.44252e-04
 Reference value :  1.44252e-04
 Reference value :  1.44253e-04
 Reference value :  1.44254e-04
 Reference value :  1.44255e-04
 Reference value :  1.44256e-04
 Reference value :  1.44257e-04
 Reference value :  1.44258e-04
 Reference value :  1.44260e-04
 Reference value :  1.44262e-04
 Reference value :  1.44265e-04
 Reference value :  1.44269e-04
 Reference value :  1.44278e-04
 Reference value :  1.44296e-04
 Reference value :  1.44330e-04
 Reference value :  1.44400e-04
 Reference value :  1.44500e-04
No. of Data Rows : 22579
ngspice-44 done
