
Note: Compatibility modes selected: hs a


Circuit: ** sch_path: /home/audrey/cace/sar-adc-using-sky130-pdk/runs/run_2025-08-29_17-53-33/parameters/power/run_06/power_consumption.sch

option SCALE: Scale is set to 1e-06 for instance and model parameters
option SCALE: Scale is set to 1e-06 for instance and model parameters
option SCALE: Scale is set to 1e-06 for instance and model parameters
option SCALE: Scale is set to 1e-06 for instance and model parameters
Doing analysis at TEMP = 27.000000 and TNOM = 27.000000

Using KLU as Direct Linear Solver
Operating point simulation skipped by 'uic',
  now using transient initial conditions.
 Reference value :  5.00000e-12
 Reference value :  5.14000e-12
 Reference value :  5.42000e-12
 Reference value :  7.10000e-12
 Reference value :  1.62347e-11
 Reference value :  3.54492e-11
 Reference value :  1.09572e-10
 Reference value :  3.29443e-10
 Reference value :  5.00000e-10
 Reference value :  5.22449e-10
 Reference value :  5.67347e-10
 Reference value :  6.56163e-10
 Reference value :  8.33794e-10
 Reference value :  1.11833e-09
 Reference value :  1.45353e-09
 Reference value :  2.46260e-09
 Reference value :  4.05666e-09
 Reference value :  5.88331e-09
 Reference value :  8.01478e-09
 Reference value :  8.74487e-09
 Reference value :  1.01451e-08
 Reference value :  1.18536e-08
 Reference value :  1.28721e-08
 Reference value :  1.38301e-08
 Reference value :  1.47009e-08
 Reference value :  1.55073e-08
 Reference value :  2.01156e-08
 Reference value :  2.74454e-08
 Reference value :  4.17175e-08
 Reference value :  7.23445e-08
 Reference value :  1.26977e-07
 Reference value :  3.08538e-07
 Reference value :  5.22387e-07
 Reference value :  8.35808e-07
 Reference value :  1.00055e-06
 Reference value :  1.00085e-06
 Reference value :  1.00103e-06
 Reference value :  1.00108e-06
 Reference value :  1.00141e-06
 Reference value :  1.00201e-06
 Reference value :  1.00245e-06
 Reference value :  1.00358e-06
 Reference value :  1.00497e-06
 Reference value :  1.00634e-06
 Reference value :  1.00805e-06
 Reference value :  1.01117e-06
 Reference value :  1.02788e-06
 Reference value :  1.07605e-06
 Reference value :  1.26871e-06
 Reference value :  2.00005e-06
 Reference value :  2.00050e-06
 Reference value :  2.00060e-06
 Reference value :  2.00102e-06
 Reference value :  2.00196e-06
 Reference value :  2.00238e-06
 Reference value :  2.00341e-06
 Reference value :  2.00461e-06
 Reference value :  2.00528e-06
 Reference value :  2.00726e-06
 Reference value :  2.00890e-06
 Reference value :  2.01007e-06
 Reference value :  2.01274e-06
 Reference value :  2.01433e-06
 Reference value :  2.01577e-06
 Reference value :  2.01965e-06
 Reference value :  2.02606e-06
 Reference value :  2.04016e-06
 Reference value :  2.08521e-06
 Reference value :  2.25793e-06
 Reference value :  2.48823e-06
 Reference value :  3.00050e-06
 Reference value :  3.00065e-06
 Reference value :  3.00085e-06
 Reference value :  3.00110e-06
 Reference value :  3.00175e-06
 Reference value :  3.00324e-06
 Reference value :  3.00441e-06
 Reference value :  3.00565e-06
 Reference value :  3.00629e-06
 Reference value :  3.00718e-06
 Reference value :  3.00959e-06
 Reference value :  3.01540e-06
 Reference value :  3.02256e-06
 Reference value :  3.06553e-06
 Reference value :  3.23741e-06
 Reference value :  3.92493e-06
 Reference value :  4.00005e-06
 Reference value :  4.00035e-06
 Reference value :  4.00053e-06
 Reference value :  4.00060e-06
 Reference value :  4.00102e-06
 Reference value :  4.00196e-06
 Reference value :  4.00286e-06
 Reference value :  4.00402e-06
 Reference value :  4.00510e-06
 Reference value :  4.00579e-06
 Reference value :  4.00638e-06
 Reference value :  4.00784e-06
 Reference value :  4.01010e-06
 Reference value :  4.01162e-06
 Reference value :  4.01294e-06
 Reference value :  4.01405e-06
 Reference value :  4.01623e-06
 Reference value :  4.01728e-06
 Reference value :  4.01958e-06
 Reference value :  4.02294e-06
 Reference value :  4.04094e-06
 Reference value :  4.08819e-06
 Reference value :  4.22017e-06
 Reference value :  4.53847e-06
 Reference value :  4.71006e-06
 Reference value :  5.00055e-06
 Reference value :  5.00085e-06
 Reference value :  5.00100e-06
 Reference value :  5.00110e-06
 Reference value :  5.00149e-06
 Reference value :  5.00221e-06
 Reference value :  5.00263e-06
 Reference value :  5.00387e-06
 Reference value :  5.00443e-06
 Reference value :  5.00569e-06
 Reference value :  5.00729e-06
 Reference value :  5.00981e-06
 Reference value :  5.01212e-06
 Reference value :  5.02388e-06
 Reference value :  5.06880e-06
 Reference value :  5.24844e-06
 Reference value :  5.96703e-06
 Reference value :  6.00005e-06
 Reference value :  6.00035e-06
 Reference value :  6.00053e-06
 Reference value :  6.00060e-06
 Reference value :  6.00102e-06
 Reference value :  6.00151e-06
 Reference value :  6.00238e-06
 Reference value :  6.00342e-06
 Reference value :  6.00401e-06
 Reference value :  6.00463e-06
 Reference value :  6.00528e-06
 Reference value :  6.00629e-06
 Reference value :  6.00815e-06
 Reference value :  6.01006e-06
 Reference value :  6.01116e-06
 Reference value :  6.01473e-06
 Reference value :  6.02599e-06
 Reference value :  6.06496e-06
 Reference value :  6.20689e-06
 Reference value :  7.00050e-06
 Reference value :  7.00065e-06
 Reference value :  7.00100e-06
 Reference value :  7.00110e-06
 Reference value :  7.00149e-06
 Reference value :  7.00221e-06
 Reference value :  7.00263e-06
 Reference value :  7.00387e-06
 Reference value :  7.00441e-06
 Reference value :  7.00564e-06
 Reference value :  7.00712e-06
 Reference value :  7.00949e-06
 Reference value :  7.01511e-06
 Reference value :  7.03562e-06
 Reference value :  7.11766e-06
 Reference value :  7.88336e-06
 Reference value :  8.00005e-06
 Reference value :  8.00035e-06
 Reference value :  8.00053e-06
 Reference value :  8.00074e-06
 Reference value :  8.00151e-06
 Reference value :  8.00238e-06
 Reference value :  8.00286e-06
 Reference value :  8.00342e-06
 Reference value :  8.00452e-06
 Reference value :  8.00579e-06
 Reference value :  8.00637e-06
 Reference value :  8.00784e-06
 Reference value :  8.01010e-06
 Reference value :  8.01162e-06
 Reference value :  8.01293e-06
 Reference value :  8.01514e-06
 Reference value :  8.01728e-06
 Reference value :  8.01840e-06
 Reference value :  8.02126e-06
 Reference value :  8.02629e-06
 Reference value :  8.03172e-06
 Reference value :  8.04414e-06
 Reference value :  8.05741e-06
 Reference value :  8.06288e-06
 Reference value :  8.06849e-06
 Reference value :  8.08060e-06
 Reference value :  8.08716e-06
 Reference value :  8.11426e-06
 Reference value :  8.17382e-06
 Reference value :  8.31304e-06
 Reference value :  8.47310e-06
 Reference value :  8.75044e-06
 Reference value :  9.00055e-06
 Reference value :  9.00085e-06
 Reference value :  9.00103e-06
 Reference value :  9.00123e-06
 Reference value :  9.00175e-06
 Reference value :  9.00263e-06
 Reference value :  9.00325e-06
 Reference value :  9.00439e-06
 Reference value :  9.00552e-06
 Reference value :  9.00706e-06
 Reference value :  9.00944e-06
 Reference value :  9.02117e-06
 Reference value :  9.11006e-06
 Reference value :  9.81996e-06
 Reference value :  1.00000e-05
 Reference value :  1.00005e-05
 Reference value :  1.00006e-05
 Reference value :  1.00015e-05
 Reference value :  1.00024e-05
 Reference value :  1.00033e-05
 Reference value :  1.00047e-05
 Reference value :  1.00064e-05
 Reference value :  1.00086e-05
 Reference value :  1.00107e-05
 Reference value :  1.00120e-05
 Reference value :  1.00194e-05
 Reference value :  1.00549e-05
 Reference value :  1.02681e-05
 Reference value :  1.10005e-05
 Reference value :  1.10008e-05
 Reference value :  1.10011e-05
 Reference value :  1.10015e-05
 Reference value :  1.10026e-05
 Reference value :  1.10039e-05
 Reference value :  1.10044e-05
 Reference value :  1.10056e-05
 Reference value :  1.10071e-05
 Reference value :  1.10089e-05
 Reference value :  1.10125e-05
 Reference value :  1.10242e-05
 Reference value :  1.10736e-05
 Reference value :  1.13995e-05
 Reference value :  1.20000e-05
 Reference value :  1.20003e-05
 Reference value :  1.20006e-05
 Reference value :  1.20010e-05
 Reference value :  1.20020e-05
 Reference value :  1.20024e-05
 Reference value :  1.20034e-05
 Reference value :  1.20040e-05
 Reference value :  1.20045e-05
 Reference value :  1.20058e-05
 Reference value :  1.20064e-05
 Reference value :  1.20080e-05
 Reference value :  1.20089e-05
 Reference value :  1.20112e-05
 Reference value :  1.20135e-05
 Reference value :  1.20144e-05
 Reference value :  1.20163e-05
 Reference value :  1.20174e-05
 Reference value :  1.20197e-05
 Reference value :  1.20266e-05
 Reference value :  1.20375e-05
 Reference value :  1.20435e-05
 Reference value :  1.20480e-05
 Reference value :  1.20504e-05
 Reference value :  1.20523e-05
 Reference value :  1.20577e-05
 Reference value :  1.20665e-05
 Reference value :  1.20969e-05
 Reference value :  1.21922e-05
 Reference value :  1.22364e-05
 Reference value :  1.23604e-05
 Reference value :  1.27639e-05
 Reference value :  1.30006e-05
 Reference value :  1.30009e-05
 Reference value :  1.30010e-05
 Reference value :  1.30012e-05
 Reference value :  1.30017e-05
 Reference value :  1.30026e-05
 Reference value :  1.30032e-05
 Reference value :  1.30044e-05
 Reference value :  1.30051e-05
 Reference value :  1.30057e-05
 Reference value :  1.30073e-05
 Reference value :  1.30098e-05
 Reference value :  1.30161e-05
 Reference value :  1.30387e-05
 Reference value :  1.30680e-05
 Reference value :  1.32434e-05
 Reference value :  1.39453e-05
 Reference value :  1.40000e-05
 Reference value :  1.40004e-05
 Reference value :  1.40005e-05
 Reference value :  1.40010e-05
 Reference value :  1.40020e-05
 Reference value :  1.40024e-05
 Reference value :  1.40034e-05
 Reference value :  1.40046e-05
 Reference value :  1.40053e-05
 Reference value :  1.40073e-05
 Reference value :  1.40082e-05
 Reference value :  1.40101e-05
 Reference value :  1.40112e-05
 Reference value :  1.40188e-05
 Reference value :  1.40401e-05
 Reference value :  1.41120e-05
 Reference value :  1.47728e-05
 Reference value :  1.50007e-05
 Reference value :  1.50010e-05
 Reference value :  1.50011e-05
 Reference value :  1.50015e-05
 Reference value :  1.50022e-05
 Reference value :  1.50032e-05
 Reference value :  1.50044e-05
 Reference value :  1.50056e-05
 Reference value :  1.50071e-05
 Reference value :  1.50095e-05
 Reference value :  1.50151e-05
 Reference value :  1.50356e-05
 Reference value :  1.52270e-05
 Reference value :  1.60000e-05
 Reference value :  1.60001e-05
 Reference value :  1.60005e-05
 Reference value :  1.60007e-05
 Reference value :  1.60020e-05
 Reference value :  1.60029e-05
 Reference value :  1.60034e-05
 Reference value :  1.60040e-05
 Reference value :  1.60045e-05
 Reference value :  1.60051e-05
 Reference value :  1.60058e-05
 Reference value :  1.60064e-05
 Reference value :  1.60078e-05
 Reference value :  1.60101e-05
 Reference value :  1.60131e-05
 Reference value :  1.60142e-05
 Reference value :  1.60164e-05
 Reference value :  1.60175e-05
 Reference value :  1.60198e-05
 Reference value :  1.60232e-05
 Reference value :  1.60376e-05
 Reference value :  1.60422e-05
 Reference value :  1.60461e-05
 Reference value :  1.60503e-05
 Reference value :  1.60614e-05
 Reference value :  1.60733e-05
 Reference value :  1.60835e-05
 Reference value :  1.61218e-05
 Reference value :  1.62428e-05
 Reference value :  1.68949e-05
 Reference value :  1.70006e-05
 Reference value :  1.70010e-05
 Reference value :  1.70011e-05
 Reference value :  1.70014e-05
 Reference value :  1.70021e-05
 Reference value :  1.70031e-05
 Reference value :  1.70037e-05
 Reference value :  1.70045e-05
 Reference value :  1.70050e-05
 Reference value :  1.70057e-05
 Reference value :  1.70063e-05
 Reference value :  1.70081e-05
 Reference value :  1.70097e-05
 Reference value :  1.70119e-05
 Reference value :  1.70231e-05
 Reference value :  1.70575e-05
 Reference value :  1.70958e-05
 Reference value :  1.73117e-05
 Reference value :  1.80002e-05
 Reference value :  1.80005e-05
 Reference value :  1.80007e-05
 Reference value :  1.80015e-05
 Reference value :  1.80021e-05
 Reference value :  1.80031e-05
 Reference value :  1.80038e-05
 Reference value :  1.80044e-05
 Reference value :  1.80059e-05
 Reference value :  1.80077e-05
 Reference value :  1.80093e-05
 Reference value :  1.80103e-05
 Reference value :  1.80113e-05
 Reference value :  1.80148e-05
 Reference value :  1.80285e-05
 Reference value :  1.80465e-05
 Reference value :  1.81548e-05
 Reference value :  1.85878e-05
 Reference value :  1.90005e-05
 Reference value :  1.90007e-05
 Reference value :  1.90010e-05
 Reference value :  1.90010e-05
 Reference value :  1.90012e-05
 Reference value :  1.90017e-05
 Reference value :  1.90025e-05
 Reference value :  1.90031e-05
 Reference value :  1.90046e-05
 Reference value :  1.90051e-05
 Reference value :  1.90058e-05
 Reference value :  1.90065e-05
 Reference value :  1.90081e-05
 Reference value :  1.90099e-05
 Reference value :  1.90128e-05
 Reference value :  1.90236e-05
 Reference value :  1.91123e-05
 Reference value :  1.93644e-05
 Reference value :  2.00001e-05
 Reference value :  2.00004e-05
 Reference value :  2.00005e-05
 Reference value :  2.00007e-05
 Reference value :  2.00015e-05
 Reference value :  2.00021e-05
 Reference value :  2.00026e-05
 Reference value :  2.00037e-05
 Reference value :  2.00049e-05
 Reference value :  2.00060e-05
 Reference value :  2.00074e-05
 Reference value :  2.00081e-05
 Reference value :  2.00103e-05
 Reference value :  2.00123e-05
 Reference value :  2.00144e-05
 Reference value :  2.00152e-05
 Reference value :  2.00162e-05
 Reference value :  2.00173e-05
 Reference value :  2.00183e-05
 Reference value :  2.00212e-05
 Reference value :  2.00269e-05
 Reference value :  2.00291e-05
 Reference value :  2.00307e-05
 Reference value :  2.00342e-05
 Reference value :  2.00393e-05
 Reference value :  2.00703e-05
 Reference value :  2.01454e-05
 Reference value :  2.03055e-05
 Reference value :  2.07908e-05
 Reference value :  2.10005e-05
 Reference value :  2.10006e-05
 Reference value :  2.10008e-05
 Reference value :  2.10010e-05
 Reference value :  2.10011e-05
 Reference value :  2.10014e-05
 Reference value :  2.10021e-05
 Reference value :  2.10031e-05
 Reference value :  2.10046e-05
 Reference value :  2.10052e-05
 Reference value :  2.10065e-05
 Reference value :  2.10074e-05
 Reference value :  2.10100e-05
 Reference value :  2.10363e-05
 Reference value :  2.13349e-05
 Reference value :  2.20000e-05
 Reference value :  2.20004e-05
 Reference value :  2.20005e-05
 Reference value :  2.20007e-05
 Reference value :  2.20010e-05
 Reference value :  2.20015e-05
 Reference value :  2.20021e-05
 Reference value :  2.20026e-05
 Reference value :  2.20044e-05
 Reference value :  2.20051e-05
 Reference value :  2.20068e-05
 Reference value :  2.20075e-05
 Reference value :  2.20084e-05
 Reference value :  2.20093e-05
 Reference value :  2.20103e-05
 Reference value :  2.20114e-05
 Reference value :  2.20194e-05
 Reference value :  2.20439e-05
 Reference value :  2.21355e-05
 Reference value :  2.24964e-05
 Reference value :  2.30005e-05
 Reference value :  2.30008e-05
 Reference value :  2.30011e-05
 Reference value :  2.30014e-05
 Reference value :  2.30021e-05
 Reference value :  2.30031e-05
 Reference value :  2.30046e-05
 Reference value :  2.30051e-05
 Reference value :  2.30058e-05
 Reference value :  2.30073e-05
 Reference value :  2.30096e-05
 Reference value :  2.30154e-05
 Reference value :  2.30333e-05
 Reference value :  2.30889e-05
 Reference value :  2.32955e-05
 Reference value :  2.35709e-05
 Reference value :  2.40001e-05
 Reference value :  2.40004e-05
 Reference value :  2.40005e-05
 Reference value :  2.40006e-05
 Reference value :  2.40010e-05
 Reference value :  2.40015e-05
 Reference value :  2.40021e-05
 Reference value :  2.40026e-05
 Reference value :  2.40031e-05
 Reference value :  2.40037e-05
 Reference value :  2.40049e-05
 Reference value :  2.40060e-05
 Reference value :  2.40074e-05
 Reference value :  2.40096e-05
 Reference value :  2.40112e-05
 Reference value :  2.40125e-05
 Reference value :  2.40149e-05
 Reference value :  2.40171e-05
 Reference value :  2.40194e-05
 Reference value :  2.40227e-05
 Reference value :  2.40314e-05
 Reference value :  2.40369e-05
 Reference value :  2.40410e-05
 Reference value :  2.40496e-05
 Reference value :  2.40544e-05
 Reference value :  2.40662e-05
 Reference value :  2.40723e-05
 Reference value :  2.40977e-05
 Reference value :  2.42029e-05
 Reference value :  2.44329e-05
 Reference value :  2.50005e-05
 Reference value :  2.50008e-05
 Reference value :  2.50011e-05
 Reference value :  2.50014e-05
 Reference value :  2.50025e-05
 Reference value :  2.50045e-05
 Reference value :  2.50057e-05
 Reference value :  2.50081e-05
 Reference value :  2.50159e-05
 Reference value :  2.50953e-05
 Reference value :  2.55850e-05
 Reference value :  2.60002e-05
 Reference value :  2.60005e-05
 Reference value :  2.60006e-05
 Reference value :  2.60010e-05
 Reference value :  2.60021e-05
 Reference value :  2.60026e-05
 Reference value :  2.60038e-05
 Reference value :  2.60044e-05
 Reference value :  2.60059e-05
 Reference value :  2.60070e-05
 Reference value :  2.60077e-05
 Reference value :  2.60085e-05
 Reference value :  2.60103e-05
 Reference value :  2.60113e-05
 Reference value :  2.60281e-05
 Reference value :  2.61494e-05
 Reference value :  2.70005e-05
 Reference value :  2.70009e-05
 Reference value :  2.70010e-05
 Reference value :  2.70014e-05
 Reference value :  2.70025e-05
 Reference value :  2.70037e-05
 Reference value :  2.70051e-05
 Reference value :  2.70058e-05
 Reference value :  2.70081e-05
 Reference value :  2.70111e-05
 Reference value :  2.70147e-05
 Reference value :  2.70316e-05
 Reference value :  2.71098e-05
 Reference value :  2.80000e-05
 Reference value :  2.80004e-05
 Reference value :  2.80007e-05
 Reference value :  2.80021e-05
 Reference value :  2.80026e-05
 Reference value :  2.80044e-05
 Reference value :  2.80060e-05
 Reference value :  2.80081e-05
 Reference value :  2.80113e-05
 Reference value :  2.80136e-05
 Reference value :  2.80152e-05
 Reference value :  2.80175e-05
 Reference value :  2.80216e-05
 Reference value :  2.80339e-05
 Reference value :  2.80668e-05
 Reference value :  2.80800e-05
 Reference value :  2.81052e-05
 Reference value :  2.81862e-05
 Reference value :  2.82699e-05
 Reference value :  2.83001e-05
 Reference value :  2.83653e-05
 Reference value :  2.85651e-05
 Reference value :  2.88416e-05
 Reference value :  2.90007e-05
 Reference value :  2.90010e-05
 Reference value :  2.90012e-05
 Reference value :  2.90017e-05
 Reference value :  2.90025e-05
 Reference value :  2.90037e-05
 Reference value :  2.90050e-05
 Reference value :  2.90064e-05
 Reference value :  2.90081e-05
 Reference value :  2.90119e-05
 Reference value :  2.90350e-05
 Reference value :  2.91661e-05
 Reference value :  3.00000e-05
 Reference value :  3.00004e-05
 Reference value :  3.00005e-05
 Reference value :  3.00010e-05
 Reference value :  3.00021e-05
 Reference value :  3.00026e-05
 Reference value :  3.00038e-05
 Reference value :  3.00052e-05
 Reference value :  3.00070e-05
 Reference value :  3.00077e-05
 Reference value :  3.00093e-05
 Reference value :  3.00113e-05
 Reference value :  3.00148e-05
 Reference value :  3.00463e-05
 Reference value :  3.02971e-05
 Reference value :  3.10005e-05
 Reference value :  3.10006e-05
 Reference value :  3.10010e-05
 Reference value :  3.10012e-05
 Reference value :  3.10017e-05
 Reference value :  3.10031e-05
 Reference value :  3.10046e-05
 Reference value :  3.10058e-05
 Reference value :  3.10081e-05
 Reference value :  3.10147e-05
 Reference value :  3.11121e-05
 Reference value :  3.20001e-05
 Reference value :  3.20007e-05
 Reference value :  3.20021e-05
 Reference value :  3.20037e-05
 Reference value :  3.20055e-05
 Reference value :  3.20066e-05
 Reference value :  3.20089e-05
 Reference value :  3.20113e-05
 Reference value :  3.20168e-05
 Reference value :  3.20224e-05
 Reference value :  3.20322e-05
 Reference value :  3.20746e-05
 Reference value :  3.29334e-05
 Reference value :  3.30010e-05
 Reference value :  3.30015e-05
 Reference value :  3.30032e-05
 Reference value :  3.30068e-05
 Reference value :  3.30135e-05
 Reference value :  3.31610e-05
No. of Data Rows : 1262
ngspice-44 done
