
Note: Compatibility modes selected: hs a


Circuit: ** sch_path: /home/ece/cace/sar-adc-using-sky130-pdk/runs/run_2025-09-13_02-30-48/parameters/sndr/run_3/sndr_enob_fom.sch

option SCALE: Scale is set to 1e-06 for instance and model parameters
option SCALE: Scale is set to 1e-06 for instance and model parameters
option SCALE: Scale is set to 1e-06 for instance and model parameters
option SCALE: Scale is set to 1e-06 for instance and model parameters
Doing analysis at TEMP = 27.000000 and TNOM = 27.000000

Using KLU as Direct Linear Solver
Operating point simulation skipped by 'uic',
  now using transient initial conditions.
 Reference value :  1.00000e-12
 Reference value :  1.02800e-12
 Reference value :  1.19600e-12
 Reference value :  3.17999e-12
 Reference value :  1.35787e-11
 Reference value :  6.36284e-11
 Reference value :  1.17160e-10
 Reference value :  4.60358e-10
 Reference value :  1.88108e-09
 Reference value :  4.12557e-09
 Reference value :  6.05153e-09
 Reference value :  7.66367e-09
 Reference value :  1.33664e-08
 Reference value :  1.55973e-08
 Reference value :  1.79479e-08
 Reference value :  2.61934e-08
 Reference value :  5.95314e-08
 Reference value :  9.45260e-08
 Reference value :  1.15319e-07
 Reference value :  1.32475e-07
 Reference value :  1.83170e-07
 Reference value :  2.50110e-07
 Reference value :  2.50200e-07
 Reference value :  2.50252e-07
 Reference value :  2.50403e-07
 Reference value :  2.50988e-07
 Reference value :  2.52379e-07
 Reference value :  2.54339e-07
 Reference value :  2.56301e-07
 Reference value :  2.60463e-07
 Reference value :  2.85647e-07
 Reference value :  5.00000e-07
 Reference value :  5.00070e-07
 Reference value :  5.00156e-07
 Reference value :  5.00857e-07
 Reference value :  5.01584e-07
 Reference value :  5.03007e-07
 Reference value :  5.05654e-07
 Reference value :  5.09859e-07
 Reference value :  5.12586e-07
 Reference value :  5.16084e-07
 Reference value :  5.33511e-07
 Reference value :  6.92644e-07
 Reference value :  7.50170e-07
 Reference value :  7.50256e-07
 Reference value :  7.50703e-07
 Reference value :  7.52040e-07
 Reference value :  7.53780e-07
 Reference value :  7.54923e-07
 Reference value :  7.56264e-07
 Reference value :  7.58956e-07
 Reference value :  7.62155e-07
 Reference value :  7.87849e-07
 Reference value :  1.00000e-06
 Reference value :  1.00007e-06
 Reference value :  1.00012e-06
 Reference value :  1.00035e-06
 Reference value :  1.00086e-06
 Reference value :  1.00163e-06
 Reference value :  1.00308e-06
 Reference value :  1.00419e-06
 Reference value :  1.00519e-06
 Reference value :  1.00640e-06
 Reference value :  1.00807e-06
 Reference value :  1.01010e-06
 Reference value :  1.01198e-06
 Reference value :  1.01373e-06
 Reference value :  1.01530e-06
 Reference value :  1.01812e-06
 Reference value :  1.02273e-06
 Reference value :  1.04141e-06
 Reference value :  1.21698e-06
 Reference value :  1.25013e-06
 Reference value :  1.25022e-06
 Reference value :  1.25070e-06
 Reference value :  1.25157e-06
 Reference value :  1.25252e-06
 Reference value :  1.25377e-06
 Reference value :  1.25575e-06
 Reference value :  1.26280e-06
 Reference value :  1.31537e-06
 Reference value :  1.50000e-06
 Reference value :  1.50007e-06
 Reference value :  1.50012e-06
 Reference value :  1.50035e-06
 Reference value :  1.50086e-06
 Reference value :  1.50159e-06
 Reference value :  1.50251e-06
 Reference value :  1.50356e-06
 Reference value :  1.50561e-06
 Reference value :  1.50624e-06
 Reference value :  1.50794e-06
 Reference value :  1.50985e-06
 Reference value :  1.51451e-06
 Reference value :  1.56940e-06
 Reference value :  1.75011e-06
 Reference value :  1.75020e-06
 Reference value :  1.75032e-06
 Reference value :  1.75110e-06
 Reference value :  1.75203e-06
 Reference value :  1.75325e-06
 Reference value :  1.75378e-06
 Reference value :  1.75491e-06
 Reference value :  1.75624e-06
 Reference value :  1.75891e-06
 Reference value :  1.76495e-06
 Reference value :  1.78573e-06
 Reference value :  1.92382e-06
 Reference value :  2.00001e-06
 Reference value :  2.00007e-06
 Reference value :  2.00011e-06
 Reference value :  2.00016e-06
 Reference value :  2.00035e-06
 Reference value :  2.00086e-06
 Reference value :  2.00163e-06
 Reference value :  2.00308e-06
 Reference value :  2.00419e-06
 Reference value :  2.00519e-06
 Reference value :  2.00710e-06
 Reference value :  2.00921e-06
 Reference value :  2.01010e-06
 Reference value :  2.01197e-06
 Reference value :  2.01371e-06
 Reference value :  2.01527e-06
 Reference value :  2.01806e-06
 Reference value :  2.02599e-06
 Reference value :  2.12749e-06
 Reference value :  2.20516e-06
 Reference value :  2.25010e-06
 Reference value :  2.25017e-06
 Reference value :  2.25026e-06
 Reference value :  2.25110e-06
 Reference value :  2.25203e-06
 Reference value :  2.25378e-06
 Reference value :  2.25568e-06
 Reference value :  2.26586e-06
 Reference value :  2.50000e-06
 Reference value :  2.50010e-06
 Reference value :  2.50035e-06
 Reference value :  2.50163e-06
 Reference value :  2.50306e-06
 Reference value :  2.50488e-06
 Reference value :  2.50630e-06
 Reference value :  2.50793e-06
 Reference value :  2.50982e-06
 Reference value :  2.51209e-06
 Reference value :  2.52660e-06
 Reference value :  2.63310e-06
 Reference value :  2.75013e-06
 Reference value :  2.75020e-06
 Reference value :  2.75026e-06
 Reference value :  2.75045e-06
 Reference value :  2.75157e-06
 Reference value :  2.75251e-06
 Reference value :  2.75377e-06
 Reference value :  2.75491e-06
 Reference value :  2.75636e-06
 Reference value :  2.76454e-06
 Reference value :  2.93805e-06
 Reference value :  3.00010e-06
 Reference value :  3.00035e-06
 Reference value :  3.00119e-06
 Reference value :  3.00258e-06
 Reference value :  3.00418e-06
 Reference value :  3.00580e-06
 Reference value :  3.00866e-06
 Reference value :  3.01029e-06
 Reference value :  3.01341e-06
 Reference value :  3.01557e-06
 Reference value :  3.01755e-06
 Reference value :  3.01987e-06
 Reference value :  3.02944e-06
 Reference value :  3.05088e-06
 Reference value :  3.05899e-06
 Reference value :  3.07143e-06
 Reference value :  3.08341e-06
 Reference value :  3.11847e-06
 Reference value :  3.25011e-06
 Reference value :  3.25020e-06
 Reference value :  3.25026e-06
 Reference value :  3.25070e-06
 Reference value :  3.25203e-06
 Reference value :  3.25375e-06
 Reference value :  3.25570e-06
 Reference value :  3.25965e-06
 Reference value :  3.28579e-06
 Reference value :  3.47208e-06
 Reference value :  3.50003e-06
 Reference value :  3.50011e-06
 Reference value :  3.50022e-06
 Reference value :  3.50086e-06
 Reference value :  3.50159e-06
 Reference value :  3.50251e-06
 Reference value :  3.50356e-06
 Reference value :  3.50490e-06
 Reference value :  3.50625e-06
 Reference value :  3.50795e-06
 Reference value :  3.50986e-06
 Reference value :  3.51216e-06
 Reference value :  3.52652e-06
 Reference value :  3.63165e-06
 Reference value :  3.75013e-06
 Reference value :  3.75021e-06
 Reference value :  3.75032e-06
 Reference value :  3.75070e-06
 Reference value :  3.75203e-06
 Reference value :  3.75324e-06
 Reference value :  3.75377e-06
 Reference value :  3.75490e-06
 Reference value :  3.75623e-06
 Reference value :  3.75786e-06
 Reference value :  3.76207e-06
 Reference value :  3.78473e-06
 Reference value :  4.00000e-06
 Reference value :  4.00007e-06
 Reference value :  4.00012e-06
 Reference value :  4.00022e-06
 Reference value :  4.00086e-06
 Reference value :  4.00163e-06
 Reference value :  4.00308e-06
 Reference value :  4.00471e-06
 Reference value :  4.00574e-06
 Reference value :  4.00807e-06
 Reference value :  4.01010e-06
 Reference value :  4.01197e-06
 Reference value :  4.01370e-06
 Reference value :  4.01525e-06
 Reference value :  4.01802e-06
 Reference value :  4.02259e-06
 Reference value :  4.05283e-06
 Reference value :  4.06320e-06
 Reference value :  4.07197e-06
 Reference value :  4.08045e-06
 Reference value :  4.10125e-06
 Reference value :  4.16481e-06
 Reference value :  4.25010e-06
 Reference value :  4.25017e-06
 Reference value :  4.25022e-06
 Reference value :  4.25045e-06
 Reference value :  4.25156e-06
 Reference value :  4.25251e-06
 Reference value :  4.25378e-06
 Reference value :  4.25501e-06
 Reference value :  4.25803e-06
 Reference value :  4.27242e-06
 Reference value :  4.36477e-06
 Reference value :  4.50001e-06
 Reference value :  4.50010e-06
 Reference value :  4.50022e-06
 Reference value :  4.50086e-06
 Reference value :  4.50163e-06
 Reference value :  4.50307e-06
 Reference value :  4.50488e-06
 Reference value :  4.50630e-06
 Reference value :  4.50794e-06
 Reference value :  4.50982e-06
 Reference value :  4.51209e-06
 Reference value :  4.52654e-06
 Reference value :  4.63244e-06
 Reference value :  4.75011e-06
 Reference value :  4.75017e-06
 Reference value :  4.75021e-06
 Reference value :  4.75032e-06
 Reference value :  4.75109e-06
 Reference value :  4.75203e-06
 Reference value :  4.75324e-06
 Reference value :  4.75377e-06
 Reference value :  4.75490e-06
 Reference value :  4.75634e-06
 Reference value :  4.75900e-06
 Reference value :  4.77001e-06
 Reference value :  4.80320e-06
 Reference value :  5.00000e-06
 Reference value :  5.00003e-06
 Reference value :  5.00010e-06
 Reference value :  5.00016e-06
 Reference value :  5.00054e-06
 Reference value :  5.00086e-06
 Reference value :  5.00163e-06
 Reference value :  5.00258e-06
 Reference value :  5.00307e-06
 Reference value :  5.00418e-06
 Reference value :  5.00524e-06
 Reference value :  5.00649e-06
 Reference value :  5.00866e-06
 Reference value :  5.01030e-06
 Reference value :  5.01188e-06
 Reference value :  5.01341e-06
 Reference value :  5.01454e-06
 Reference value :  5.01652e-06
 Reference value :  5.01871e-06
 Reference value :  5.02186e-06
 Reference value :  5.03598e-06
 Reference value :  5.05043e-06
 Reference value :  5.06609e-06
 Reference value :  5.08100e-06
 Reference value :  5.10540e-06
 Reference value :  5.15838e-06
 Reference value :  5.25011e-06
 Reference value :  5.25017e-06
 Reference value :  5.25021e-06
 Reference value :  5.25026e-06
 Reference value :  5.25045e-06
 Reference value :  5.25109e-06
 Reference value :  5.25202e-06
 Reference value :  5.25324e-06
 Reference value :  5.25375e-06
 Reference value :  5.25502e-06
 Reference value :  5.25647e-06
 Reference value :  5.25966e-06
 Reference value :  5.26586e-06
 Reference value :  5.31249e-06
 Reference value :  5.50000e-06
 Reference value :  5.50003e-06
 Reference value :  5.50012e-06
 Reference value :  5.50035e-06
 Reference value :  5.50086e-06
 Reference value :  5.50159e-06
 Reference value :  5.50251e-06
 Reference value :  5.50356e-06
 Reference value :  5.50562e-06
 Reference value :  5.50625e-06
 Reference value :  5.50795e-06
 Reference value :  5.50986e-06
 Reference value :  5.51451e-06
 Reference value :  5.54036e-06
 Reference value :  5.75010e-06
 Reference value :  5.75013e-06
 Reference value :  5.75020e-06
 Reference value :  5.75026e-06
 Reference value :  5.75070e-06
 Reference value :  5.75156e-06
 Reference value :  5.75251e-06
 Reference value :  5.75377e-06
 Reference value :  5.75490e-06
 Reference value :  5.75623e-06
 Reference value :  5.75785e-06
 Reference value :  5.76206e-06
 Reference value :  5.77426e-06
 Reference value :  5.83661e-06
 Reference value :  6.00003e-06
 Reference value :  6.00011e-06
 Reference value :  6.00022e-06
 Reference value :  6.00054e-06
 Reference value :  6.00119e-06
 Reference value :  6.00209e-06
 Reference value :  6.00308e-06
 Reference value :  6.00419e-06
 Reference value :  6.00519e-06
 Reference value :  6.00711e-06
 Reference value :  6.00807e-06
 Reference value :  6.01010e-06
 Reference value :  6.01196e-06
 Reference value :  6.01369e-06
 Reference value :  6.01533e-06
 Reference value :  6.01719e-06
 Reference value :  6.01821e-06
 Reference value :  6.02128e-06
 Reference value :  6.02668e-06
 Reference value :  6.04630e-06
 Reference value :  6.08140e-06
 Reference value :  6.23431e-06
 Reference value :  6.25013e-06
 Reference value :  6.25021e-06
 Reference value :  6.25032e-06
 Reference value :  6.25109e-06
 Reference value :  6.25202e-06
 Reference value :  6.25323e-06
 Reference value :  6.25376e-06
 Reference value :  6.25499e-06
 Reference value :  6.25796e-06
 Reference value :  6.26560e-06
 Reference value :  6.31056e-06
 Reference value :  6.50000e-06
 Reference value :  6.50007e-06
 Reference value :  6.50012e-06
 Reference value :  6.50035e-06
 Reference value :  6.50086e-06
 Reference value :  6.50159e-06
 Reference value :  6.50251e-06
 Reference value :  6.50356e-06
 Reference value :  6.50488e-06
 Reference value :  6.50625e-06
 Reference value :  6.50795e-06
 Reference value :  6.51110e-06
 Reference value :  6.52622e-06
 Reference value :  6.74045e-06
 Reference value :  6.75011e-06
 Reference value :  6.75020e-06
 Reference value :  6.75032e-06
 Reference value :  6.75070e-06
 Reference value :  6.75156e-06
 Reference value :  6.75251e-06
 Reference value :  6.75376e-06
 Reference value :  6.75490e-06
 Reference value :  6.75623e-06
 Reference value :  6.75889e-06
 Reference value :  6.76205e-06
 Reference value :  6.77425e-06
 Reference value :  6.83617e-06
 Reference value :  7.00001e-06
 Reference value :  7.00010e-06
 Reference value :  7.00012e-06
 Reference value :  7.00022e-06
 Reference value :  7.00086e-06
 Reference value :  7.00163e-06
 Reference value :  7.00258e-06
 Reference value :  7.00308e-06
 Reference value :  7.00419e-06
 Reference value :  7.00519e-06
 Reference value :  7.00711e-06
 Reference value :  7.00921e-06
 Reference value :  7.01105e-06
 Reference value :  7.01197e-06
 Reference value :  7.01368e-06
 Reference value :  7.01528e-06
 Reference value :  7.01809e-06
 Reference value :  7.02265e-06
 Reference value :  7.04546e-06
 Reference value :  7.06386e-06
 Reference value :  7.10786e-06
 Reference value :  7.25011e-06
 Reference value :  7.25020e-06
 Reference value :  7.25026e-06
 Reference value :  7.25045e-06
 Reference value :  7.25156e-06
 Reference value :  7.25202e-06
 Reference value :  7.25323e-06
 Reference value :  7.25377e-06
 Reference value :  7.25501e-06
 Reference value :  7.25645e-06
 Reference value :  7.25964e-06
 Reference value :  7.27235e-06
 Reference value :  7.36420e-06
 Reference value :  7.50001e-06
 Reference value :  7.50010e-06
 Reference value :  7.50012e-06
 Reference value :  7.50022e-06
 Reference value :  7.50054e-06
 Reference value :  7.50086e-06
 Reference value :  7.50163e-06
 Reference value :  7.50258e-06
 Reference value :  7.50307e-06
 Reference value :  7.50418e-06
 Reference value :  7.50568e-06
 Reference value :  7.50630e-06
 Reference value :  7.50794e-06
 Reference value :  7.51094e-06
 Reference value :  7.52650e-06
 Reference value :  7.63193e-06
 Reference value :  7.75013e-06
 Reference value :  7.75021e-06
 Reference value :  7.75032e-06
 Reference value :  7.75109e-06
 Reference value :  7.75202e-06
 Reference value :  7.75323e-06
 Reference value :  7.75436e-06
 Reference value :  7.75633e-06
 Reference value :  7.76990e-06
 Reference value :  8.00001e-06
 Reference value :  8.00011e-06
 Reference value :  8.00022e-06
 Reference value :  8.00086e-06
 Reference value :  8.00163e-06
 Reference value :  8.00258e-06
 Reference value :  8.00307e-06
 Reference value :  8.00474e-06
 Reference value :  8.00582e-06
 Reference value :  8.00818e-06
 Reference value :  8.01117e-06
 Reference value :  8.04093e-06
 Reference value :  8.25010e-06
 Reference value :  8.25013e-06
 Reference value :  8.25020e-06
 Reference value :  8.25026e-06
 Reference value :  8.25045e-06
 Reference value :  8.25109e-06
 Reference value :  8.25202e-06
 Reference value :  8.25323e-06
 Reference value :  8.25483e-06
 Reference value :  8.25837e-06
 Reference value :  8.26681e-06
 Reference value :  8.31910e-06
 Reference value :  8.50001e-06
 Reference value :  8.50010e-06
 Reference value :  8.50016e-06
 Reference value :  8.50035e-06
 Reference value :  8.50096e-06
 Reference value :  8.50197e-06
 Reference value :  8.50310e-06
 Reference value :  8.50368e-06
 Reference value :  8.50475e-06
 Reference value :  8.50596e-06
 Reference value :  8.50808e-06
 Reference value :  8.51832e-06
 Reference value :  8.52408e-06
 Reference value :  8.52958e-06
 Reference value :  8.53343e-06
 Reference value :  8.53633e-06
 Reference value :  8.53859e-06
 Reference value :  8.54214e-06
 Reference value :  8.54337e-06
 Reference value :  8.54771e-06
 Reference value :  8.56063e-06
 Reference value :  8.57218e-06
 Reference value :  8.60830e-06
 Reference value :  8.67771e-06
 Reference value :  8.68799e-06
 Reference value :  8.69801e-06
 Reference value :  8.71734e-06
 Reference value :  8.73420e-06
 Reference value :  8.75011e-06
 Reference value :  8.75020e-06
 Reference value :  8.75032e-06
 Reference value :  8.75109e-06
 Reference value :  8.75202e-06
 Reference value :  8.75322e-06
 Reference value :  8.75373e-06
 Reference value :  8.75501e-06
 Reference value :  8.75795e-06
 Reference value :  8.76570e-06
 Reference value :  8.81171e-06
 Reference value :  9.00000e-06
 Reference value :  9.00003e-06
 Reference value :  9.00011e-06
 Reference value :  9.00016e-06
 Reference value :  9.00035e-06
 Reference value :  9.00086e-06
 Reference value :  9.00159e-06
 Reference value :  9.00251e-06
 Reference value :  9.00300e-06
 Reference value :  9.00410e-06
 Reference value :  9.00560e-06
 Reference value :  9.00863e-06
 Reference value :  9.00988e-06
 Reference value :  9.01261e-06
 Reference value :  9.01608e-06
 Reference value :  9.02568e-06
 Reference value :  9.07340e-06
 Reference value :  9.25010e-06
 Reference value :  9.25017e-06
 Reference value :  9.25021e-06
 Reference value :  9.25026e-06
 Reference value :  9.25070e-06
 Reference value :  9.25156e-06
 Reference value :  9.25251e-06
 Reference value :  9.25375e-06
 Reference value :  9.25488e-06
 Reference value :  9.25621e-06
 Reference value :  9.25689e-06
 Reference value :  9.25853e-06
 Reference value :  9.26106e-06
 Reference value :  9.26998e-06
 Reference value :  9.29786e-06
 Reference value :  9.46313e-06
 Reference value :  9.50007e-06
 Reference value :  9.50016e-06
 Reference value :  9.50054e-06
 Reference value :  9.50119e-06
 Reference value :  9.50258e-06
 Reference value :  9.50308e-06
 Reference value :  9.50419e-06
 Reference value :  9.50471e-06
 Reference value :  9.50641e-06
 Reference value :  9.50808e-06
 Reference value :  9.50922e-06
 Reference value :  9.51011e-06
 Reference value :  9.51106e-06
 Reference value :  9.51199e-06
 Reference value :  9.51372e-06
 Reference value :  9.51528e-06
 Reference value :  9.51712e-06
 Reference value :  9.51809e-06
 Reference value :  9.52087e-06
 Reference value :  9.54069e-06
 Reference value :  9.70945e-06
 Reference value :  9.75013e-06
 Reference value :  9.75020e-06
 Reference value :  9.75026e-06
 Reference value :  9.75070e-06
 Reference value :  9.75156e-06
 Reference value :  9.75251e-06
 Reference value :  9.75323e-06
 Reference value :  9.75376e-06
 Reference value :  9.75498e-06
 Reference value :  9.75641e-06
 Reference value :  9.75954e-06
 Reference value :  9.76558e-06
 Reference value :  9.81039e-06
 Reference value :  9.96401e-06
 Reference value :  1.00000e-05
 Reference value :  1.00001e-05
 Reference value :  1.00001e-05
 Reference value :  1.00002e-05
 Reference value :  1.00003e-05
 Reference value :  1.00009e-05
 Reference value :  1.00016e-05
 Reference value :  1.00025e-05
 Reference value :  1.00030e-05
 Reference value :  1.00036e-05
 Reference value :  1.00049e-05
 Reference value :  1.00056e-05
 Reference value :  1.00062e-05
 Reference value :  1.00079e-05
 Reference value :  1.00099e-05
 Reference value :  1.00122e-05
 Reference value :  1.00262e-05
 Reference value :  1.01262e-05
 Reference value :  1.02501e-05
 Reference value :  1.02502e-05
 Reference value :  1.02502e-05
 Reference value :  1.02503e-05
 Reference value :  1.02507e-05
 Reference value :  1.02516e-05
 Reference value :  1.02520e-05
 Reference value :  1.02532e-05
 Reference value :  1.02538e-05
 Reference value :  1.02549e-05
 Reference value :  1.02562e-05
 Reference value :  1.02579e-05
 Reference value :  1.02604e-05
 Reference value :  1.02742e-05
 Reference value :  1.04044e-05
 Reference value :  1.05001e-05
 Reference value :  1.05002e-05
 Reference value :  1.05009e-05
 Reference value :  1.05016e-05
 Reference value :  1.05031e-05
 Reference value :  1.05047e-05
 Reference value :  1.05057e-05
 Reference value :  1.05081e-05
 Reference value :  1.05101e-05
 Reference value :  1.05120e-05
 Reference value :  1.05137e-05
 Reference value :  1.05153e-05
 Reference value :  1.05171e-05
 Reference value :  1.05191e-05
 Reference value :  1.05255e-05
 Reference value :  1.05534e-05
 Reference value :  1.06533e-05
 Reference value :  1.07217e-05
 Reference value :  1.07400e-05
 Reference value :  1.07501e-05
 Reference value :  1.07502e-05
 Reference value :  1.07504e-05
 Reference value :  1.07516e-05
 Reference value :  1.07525e-05
 Reference value :  1.07538e-05
 Reference value :  1.07550e-05
 Reference value :  1.07564e-05
 Reference value :  1.07625e-05
 Reference value :  1.08118e-05
 Reference value :  1.10000e-05
 Reference value :  1.10001e-05
 Reference value :  1.10001e-05
 Reference value :  1.10003e-05
 Reference value :  1.10009e-05
 Reference value :  1.10016e-05
 Reference value :  1.10026e-05
 Reference value :  1.10031e-05
 Reference value :  1.10042e-05
 Reference value :  1.10057e-05
 Reference value :  1.10063e-05
 Reference value :  1.10079e-05
 Reference value :  1.10109e-05
 Reference value :  1.10416e-05
 Reference value :  1.12501e-05
 Reference value :  1.12502e-05
 Reference value :  1.12503e-05
 Reference value :  1.12511e-05
 Reference value :  1.12520e-05
 Reference value :  1.12532e-05
 Reference value :  1.12549e-05
 Reference value :  1.12572e-05
 Reference value :  1.12810e-05
 Reference value :  1.15000e-05
 Reference value :  1.15002e-05
 Reference value :  1.15009e-05
 Reference value :  1.15021e-05
 Reference value :  1.15031e-05
 Reference value :  1.15042e-05
 Reference value :  1.15052e-05
 Reference value :  1.15073e-05
 Reference value :  1.15103e-05
 Reference value :  1.15134e-05
 Reference value :  1.15156e-05
 Reference value :  1.15175e-05
 Reference value :  1.15219e-05
 Reference value :  1.15364e-05
 Reference value :  1.15524e-05
 Reference value :  1.15647e-05
 Reference value :  1.15763e-05
 Reference value :  1.16046e-05
 Reference value :  1.17501e-05
 Reference value :  1.17502e-05
 Reference value :  1.17507e-05
 Reference value :  1.17520e-05
 Reference value :  1.17537e-05
 Reference value :  1.17557e-05
 Reference value :  1.17626e-05
 Reference value :  1.18126e-05
 Reference value :  1.20000e-05
 Reference value :  1.20001e-05
 Reference value :  1.20003e-05
 Reference value :  1.20012e-05
 Reference value :  1.20016e-05
 Reference value :  1.20025e-05
 Reference value :  1.20036e-05
 Reference value :  1.20056e-05
 Reference value :  1.20070e-05
 Reference value :  1.20089e-05
 Reference value :  1.20111e-05
 Reference value :  1.20262e-05
 Reference value :  1.22393e-05
 Reference value :  1.22502e-05
 Reference value :  1.22503e-05
 Reference value :  1.22516e-05
 Reference value :  1.22532e-05
 Reference value :  1.22549e-05
 Reference value :  1.22570e-05
 Reference value :  1.22589e-05
 Reference value :  1.22679e-05
 Reference value :  1.24048e-05
 Reference value :  1.25001e-05
 Reference value :  1.25002e-05
 Reference value :  1.25009e-05
 Reference value :  1.25021e-05
 Reference value :  1.25031e-05
 Reference value :  1.25052e-05
 Reference value :  1.25064e-05
 Reference value :  1.25081e-05
 Reference value :  1.25101e-05
 Reference value :  1.25110e-05
 Reference value :  1.25120e-05
 Reference value :  1.25137e-05
 Reference value :  1.25153e-05
 Reference value :  1.25181e-05
 Reference value :  1.25255e-05
 Reference value :  1.25776e-05
 Reference value :  1.25923e-05
 Reference value :  1.26504e-05
 Reference value :  1.27501e-05
 Reference value :  1.27502e-05
 Reference value :  1.27507e-05
 Reference value :  1.27520e-05
 Reference value :  1.27538e-05
 Reference value :  1.27550e-05
 Reference value :  1.27564e-05
 Reference value :  1.27625e-05
 Reference value :  1.27724e-05
 Reference value :  1.28117e-05
 Reference value :  1.29693e-05
 Reference value :  1.30001e-05
 Reference value :  1.30001e-05
 Reference value :  1.30003e-05
 Reference value :  1.30009e-05
 Reference value :  1.30016e-05
 Reference value :  1.30031e-05
 Reference value :  1.30042e-05
 Reference value :  1.30057e-05
 Reference value :  1.30063e-05
 Reference value :  1.30079e-05
 Reference value :  1.30098e-05
 Reference value :  1.30109e-05
 Reference value :  1.30190e-05
 Reference value :  1.30265e-05
 Reference value :  1.31319e-05
 Reference value :  1.32501e-05
 Reference value :  1.32502e-05
 Reference value :  1.32502e-05
 Reference value :  1.32503e-05
 Reference value :  1.32507e-05
 Reference value :  1.32516e-05
 Reference value :  1.32520e-05
 Reference value :  1.32532e-05
 Reference value :  1.32538e-05
 Reference value :  1.32549e-05
 Reference value :  1.32563e-05
 Reference value :  1.32590e-05
 Reference value :  1.32700e-05
 Reference value :  1.33472e-05
 Reference value :  1.35000e-05
 Reference value :  1.35001e-05
 Reference value :  1.35001e-05
 Reference value :  1.35002e-05
 Reference value :  1.35009e-05
 Reference value :  1.35016e-05
 Reference value :  1.35026e-05
 Reference value :  1.35031e-05
 Reference value :  1.35042e-05
 Reference value :  1.35052e-05
 Reference value :  1.35065e-05
 Reference value :  1.35087e-05
 Reference value :  1.35103e-05
 Reference value :  1.35119e-05
 Reference value :  1.35134e-05
 Reference value :  1.35145e-05
 Reference value :  1.35156e-05
 Reference value :  1.35165e-05
 Reference value :  1.35187e-05
 Reference value :  1.35219e-05
 Reference value :  1.35294e-05
 Reference value :  1.35400e-05
 Reference value :  1.35468e-05
 Reference value :  1.35514e-05
 Reference value :  1.35622e-05
 Reference value :  1.35829e-05
 Reference value :  1.36183e-05
 Reference value :  1.37385e-05
 Reference value :  1.37501e-05
 Reference value :  1.37502e-05
 Reference value :  1.37503e-05
 Reference value :  1.37507e-05
 Reference value :  1.37516e-05
 Reference value :  1.37525e-05
 Reference value :  1.37537e-05
 Reference value :  1.37550e-05
 Reference value :  1.37580e-05
 Reference value :  1.37659e-05
 Reference value :  1.38659e-05
 Reference value :  1.40000e-05
 Reference value :  1.40001e-05
 Reference value :  1.40003e-05
 Reference value :  1.40009e-05
 Reference value :  1.40016e-05
 Reference value :  1.40025e-05
 Reference value :  1.40036e-05
 Reference value :  1.40049e-05
 Reference value :  1.40062e-05
 Reference value :  1.40089e-05
 Reference value :  1.40122e-05
 Reference value :  1.40404e-05
 Reference value :  1.42501e-05
 Reference value :  1.42502e-05
 Reference value :  1.42503e-05
 Reference value :  1.42511e-05
 Reference value :  1.42520e-05
 Reference value :  1.42532e-05
 Reference value :  1.42538e-05
 Reference value :  1.42549e-05
 Reference value :  1.42562e-05
 Reference value :  1.42589e-05
 Reference value :  1.42647e-05
 Reference value :  1.42845e-05
 Reference value :  1.45000e-05
 Reference value :  1.45001e-05
 Reference value :  1.45001e-05
 Reference value :  1.45003e-05
 Reference value :  1.45009e-05
 Reference value :  1.45016e-05
 Reference value :  1.45026e-05
 Reference value :  1.45036e-05
 Reference value :  1.45047e-05
 Reference value :  1.45057e-05
 Reference value :  1.45081e-05
 Reference value :  1.45101e-05
 Reference value :  1.45120e-05
 Reference value :  1.45137e-05
 Reference value :  1.45153e-05
 Reference value :  1.45182e-05
 Reference value :  1.45229e-05
 Reference value :  1.45456e-05
 Reference value :  1.46779e-05
 Reference value :  1.47501e-05
 Reference value :  1.47502e-05
 Reference value :  1.47507e-05
 Reference value :  1.47520e-05
 Reference value :  1.47538e-05
 Reference value :  1.47550e-05
 Reference value :  1.47580e-05
 Reference value :  1.47656e-05
 Reference value :  1.48105e-05
 Reference value :  1.50000e-05
 Reference value :  1.50001e-05
 Reference value :  1.50001e-05
 Reference value :  1.50003e-05
 Reference value :  1.50009e-05
 Reference value :  1.50016e-05
 Reference value :  1.50025e-05
 Reference value :  1.50036e-05
 Reference value :  1.50056e-05
 Reference value :  1.50062e-05
 Reference value :  1.50079e-05
 Reference value :  1.50111e-05
 Reference value :  1.50405e-05
 Reference value :  1.52501e-05
 Reference value :  1.52502e-05
 Reference value :  1.52503e-05
 Reference value :  1.52511e-05
 Reference value :  1.52525e-05
 Reference value :  1.52538e-05
 Reference value :  1.52549e-05
 Reference value :  1.52562e-05
 Reference value :  1.52579e-05
 Reference value :  1.52621e-05
 Reference value :  1.52845e-05
 Reference value :  1.54051e-05
 Reference value :  1.55015e-05
 Reference value :  1.55061e-05
 Reference value :  1.55090e-05
 Reference value :  1.55113e-05
 Reference value :  1.55123e-05
 Reference value :  1.55143e-05
 Reference value :  1.55161e-05
 Reference value :  1.55191e-05
 Reference value :  1.55319e-05
 Reference value :  1.56164e-05
 Reference value :  1.57501e-05
 Reference value :  1.57503e-05
 Reference value :  1.57507e-05
 Reference value :  1.57516e-05
 Reference value :  1.57525e-05
 Reference value :  1.57537e-05
 Reference value :  1.57549e-05
 Reference value :  1.57576e-05
 Reference value :  1.57648e-05
 Reference value :  1.58074e-05
 Reference value :  1.60000e-05
 Reference value :  1.60001e-05
 Reference value :  1.60002e-05
 Reference value :  1.60005e-05
 Reference value :  1.60009e-05
 Reference value :  1.60016e-05
 Reference value :  1.60030e-05
 Reference value :  1.60049e-05
 Reference value :  1.60062e-05
 Reference value :  1.60089e-05
 Reference value :  1.60122e-05
 Reference value :  1.60405e-05
 Reference value :  1.62405e-05
 Reference value :  1.62501e-05
 Reference value :  1.62502e-05
 Reference value :  1.62504e-05
 Reference value :  1.62516e-05
 Reference value :  1.62532e-05
 Reference value :  1.62544e-05
 Reference value :  1.62562e-05
 Reference value :  1.62604e-05
 Reference value :  1.62843e-05
 Reference value :  1.65000e-05
 Reference value :  1.65001e-05
 Reference value :  1.65003e-05
 Reference value :  1.65009e-05
 Reference value :  1.65016e-05
 Reference value :  1.65031e-05
 Reference value :  1.65041e-05
 Reference value :  1.65052e-05
 Reference value :  1.65070e-05
 Reference value :  1.65086e-05
 Reference value :  1.65101e-05
 Reference value :  1.65118e-05
 Reference value :  1.65155e-05
 Reference value :  1.65168e-05
 Reference value :  1.65249e-05
 Reference value :  1.65538e-05
 Reference value :  1.65685e-05
 Reference value :  1.65987e-05
 Reference value :  1.66283e-05
 Reference value :  1.66665e-05
 Reference value :  1.67501e-05
 Reference value :  1.67501e-05
 Reference value :  1.67502e-05
 Reference value :  1.67503e-05
 Reference value :  1.67507e-05
 Reference value :  1.67516e-05
 Reference value :  1.67525e-05
 Reference value :  1.67539e-05
 Reference value :  1.67558e-05
 Reference value :  1.67584e-05
 Reference value :  1.67631e-05
 Reference value :  1.67893e-05
 Reference value :  1.69990e-05
 Reference value :  1.70000e-05
 Reference value :  1.70001e-05
 Reference value :  1.70001e-05
 Reference value :  1.70003e-05
 Reference value :  1.70014e-05
 Reference value :  1.70025e-05
 Reference value :  1.70036e-05
 Reference value :  1.70046e-05
 Reference value :  1.70058e-05
 Reference value :  1.70079e-05
 Reference value :  1.70124e-05
 Reference value :  1.70172e-05
 Reference value :  1.70229e-05
 Reference value :  1.70289e-05
 Reference value :  1.70330e-05
 Reference value :  1.70385e-05
 Reference value :  1.70472e-05
 Reference value :  1.70693e-05
 Reference value :  1.70864e-05
 Reference value :  1.71290e-05
 Reference value :  1.71778e-05
 Reference value :  1.71904e-05
 Reference value :  1.72113e-05
 Reference value :  1.72501e-05
 Reference value :  1.72502e-05
 Reference value :  1.72503e-05
 Reference value :  1.72507e-05
 Reference value :  1.72520e-05
 Reference value :  1.72537e-05
 Reference value :  1.72557e-05
 Reference value :  1.72625e-05
 Reference value :  1.73124e-05
 Reference value :  1.75000e-05
 Reference value :  1.75001e-05
 Reference value :  1.75002e-05
 Reference value :  1.75009e-05
 Reference value :  1.75012e-05
 Reference value :  1.75020e-05
 Reference value :  1.75030e-05
 Reference value :  1.75041e-05
 Reference value :  1.75070e-05
 Reference value :  1.75099e-05
 Reference value :  1.75113e-05
 Reference value :  1.75126e-05
 Reference value :  1.75160e-05
 Reference value :  1.75214e-05
 Reference value :  1.75482e-05
 Reference value :  1.77160e-05
 Reference value :  1.77501e-05
 Reference value :  1.77502e-05
 Reference value :  1.77503e-05
 Reference value :  1.77507e-05
 Reference value :  1.77516e-05
 Reference value :  1.77525e-05
 Reference value :  1.77538e-05
 Reference value :  1.77549e-05
 Reference value :  1.77562e-05
 Reference value :  1.77576e-05
 Reference value :  1.77585e-05
 Reference value :  1.77609e-05
 Reference value :  1.77696e-05
 Reference value :  1.77965e-05
 Reference value :  1.78859e-05
 Reference value :  1.80008e-05
 Reference value :  1.80034e-05
 Reference value :  1.80050e-05
 Reference value :  1.80063e-05
 Reference value :  1.80089e-05
 Reference value :  1.80106e-05
 Reference value :  1.80115e-05
 Reference value :  1.80137e-05
 Reference value :  1.80155e-05
 Reference value :  1.80175e-05
 Reference value :  1.80196e-05
 Reference value :  1.80233e-05
 Reference value :  1.80417e-05
 Reference value :  1.81345e-05
 Reference value :  1.82501e-05
 Reference value :  1.82502e-05
 Reference value :  1.82502e-05
 Reference value :  1.82504e-05
 Reference value :  1.82516e-05
 Reference value :  1.82525e-05
 Reference value :  1.82538e-05
 Reference value :  1.82550e-05
 Reference value :  1.82580e-05
 Reference value :  1.82656e-05
 Reference value :  1.83617e-05
 Reference value :  1.85000e-05
 Reference value :  1.85001e-05
 Reference value :  1.85002e-05
 Reference value :  1.85009e-05
 Reference value :  1.85016e-05
 Reference value :  1.85030e-05
 Reference value :  1.85049e-05
 Reference value :  1.85062e-05
 Reference value :  1.85089e-05
 Reference value :  1.85122e-05
 Reference value :  1.85404e-05
 Reference value :  1.87501e-05
 Reference value :  1.87502e-05
 Reference value :  1.87503e-05
 Reference value :  1.87507e-05
 Reference value :  1.87520e-05
 Reference value :  1.87532e-05
 Reference value :  1.87544e-05
 Reference value :  1.87555e-05
 Reference value :  1.87570e-05
 Reference value :  1.87604e-05
 Reference value :  1.87679e-05
 Reference value :  1.88356e-05
 Reference value :  1.90000e-05
 Reference value :  1.90001e-05
 Reference value :  1.90002e-05
 Reference value :  1.90003e-05
 Reference value :  1.90009e-05
 Reference value :  1.90016e-05
 Reference value :  1.90026e-05
 Reference value :  1.90036e-05
 Reference value :  1.90047e-05
 Reference value :  1.90057e-05
 Reference value :  1.90081e-05
 Reference value :  1.90101e-05
 Reference value :  1.90120e-05
 Reference value :  1.90137e-05
 Reference value :  1.90153e-05
 Reference value :  1.90181e-05
 Reference value :  1.90255e-05
 Reference value :  1.90785e-05
 Reference value :  1.91543e-05
 Reference value :  1.92246e-05
 Reference value :  1.92438e-05
 Reference value :  1.92501e-05
 Reference value :  1.92502e-05
 Reference value :  1.92503e-05
 Reference value :  1.92511e-05
 Reference value :  1.92520e-05
 Reference value :  1.92532e-05
 Reference value :  1.92544e-05
 Reference value :  1.92557e-05
 Reference value :  1.92596e-05
 Reference value :  1.92855e-05
 Reference value :  1.95000e-05
 Reference value :  1.95007e-05
 Reference value :  1.95030e-05
 Reference value :  1.95044e-05
 Reference value :  1.95060e-05
 Reference value :  1.95067e-05
 Reference value :  1.95083e-05
 Reference value :  1.95101e-05
 Reference value :  1.95123e-05
 Reference value :  1.95269e-05
 Reference value :  1.96367e-05
 Reference value :  1.97501e-05
 Reference value :  1.97502e-05
 Reference value :  1.97503e-05
 Reference value :  1.97511e-05
 Reference value :  1.97520e-05
 Reference value :  1.97532e-05
 Reference value :  1.97537e-05
 Reference value :  1.97548e-05
 Reference value :  1.97562e-05
 Reference value :  1.97609e-05
 Reference value :  1.98374e-05
 Reference value :  2.00000e-05
 Reference value :  2.00001e-05
 Reference value :  2.00002e-05
 Reference value :  2.00009e-05
 Reference value :  2.00016e-05
 Reference value :  2.00031e-05
 Reference value :  2.00042e-05
 Reference value :  2.00052e-05
 Reference value :  2.00065e-05
 Reference value :  2.00087e-05
 Reference value :  2.00103e-05
 Reference value :  2.00134e-05
 Reference value :  2.00145e-05
 Reference value :  2.00165e-05
 Reference value :  2.00187e-05
 Reference value :  2.00243e-05
 Reference value :  2.00360e-05
 Reference value :  2.00449e-05
 Reference value :  2.00574e-05
 Reference value :  2.00667e-05
 Reference value :  2.00773e-05
 Reference value :  2.01047e-05
 Reference value :  2.02246e-05
 Reference value :  2.02502e-05
 Reference value :  2.02502e-05
 Reference value :  2.02504e-05
 Reference value :  2.02516e-05
 Reference value :  2.02525e-05
 Reference value :  2.02537e-05
 Reference value :  2.02557e-05
 Reference value :  2.02625e-05
 Reference value :  2.03125e-05
 Reference value :  2.05005e-05
 Reference value :  2.05019e-05
 Reference value :  2.05030e-05
 Reference value :  2.05049e-05
 Reference value :  2.05063e-05
 Reference value :  2.05080e-05
 Reference value :  2.05089e-05
 Reference value :  2.05109e-05
 Reference value :  2.05267e-05
 Reference value :  2.06360e-05
 Reference value :  2.07501e-05
 Reference value :  2.07502e-05
 Reference value :  2.07504e-05
 Reference value :  2.07516e-05
 Reference value :  2.07532e-05
 Reference value :  2.07544e-05
 Reference value :  2.07555e-05
 Reference value :  2.07570e-05
 Reference value :  2.07604e-05
 Reference value :  2.07680e-05
 Reference value :  2.08025e-05
 Reference value :  2.10000e-05
 Reference value :  2.10000e-05
 Reference value :  2.10001e-05
 Reference value :  2.10002e-05
 Reference value :  2.10005e-05
 Reference value :  2.10009e-05
 Reference value :  2.10016e-05
 Reference value :  2.10026e-05
 Reference value :  2.10036e-05
 Reference value :  2.10047e-05
 Reference value :  2.10057e-05
 Reference value :  2.10081e-05
 Reference value :  2.10101e-05
 Reference value :  2.10120e-05
 Reference value :  2.10137e-05
 Reference value :  2.10153e-05
 Reference value :  2.10181e-05
 Reference value :  2.10313e-05
 Reference value :  2.10712e-05
 Reference value :  2.10884e-05
 Reference value :  2.11043e-05
 Reference value :  2.11799e-05
 Reference value :  2.12502e-05
 Reference value :  2.12503e-05
 Reference value :  2.12507e-05
 Reference value :  2.12520e-05
 Reference value :  2.12538e-05
 Reference value :  2.12550e-05
 Reference value :  2.12564e-05
 Reference value :  2.12658e-05
 Reference value :  2.13117e-05
 Reference value :  2.15000e-05
 Reference value :  2.15001e-05
 Reference value :  2.15001e-05
 Reference value :  2.15002e-05
 Reference value :  2.15009e-05
 Reference value :  2.15016e-05
 Reference value :  2.15031e-05
 Reference value :  2.15049e-05
 Reference value :  2.15063e-05
 Reference value :  2.15079e-05
 Reference value :  2.15111e-05
 Reference value :  2.15261e-05
 Reference value :  2.16269e-05
 Reference value :  2.17501e-05
 Reference value :  2.17502e-05
 Reference value :  2.17502e-05
 Reference value :  2.17504e-05
 Reference value :  2.17516e-05
 Reference value :  2.17532e-05
 Reference value :  2.17549e-05
 Reference value :  2.17571e-05
 Reference value :  2.17605e-05
 Reference value :  2.17745e-05
 Reference value :  2.19176e-05
 Reference value :  2.20013e-05
 Reference value :  2.20052e-05
 Reference value :  2.20076e-05
 Reference value :  2.20109e-05
 Reference value :  2.20130e-05
 Reference value :  2.20162e-05
 Reference value :  2.20193e-05
 Reference value :  2.20233e-05
 Reference value :  2.20314e-05
 Reference value :  2.20619e-05
 Reference value :  2.20860e-05
 Reference value :  2.21465e-05
 Reference value :  2.22502e-05
 Reference value :  2.22503e-05
 Reference value :  2.22511e-05
 Reference value :  2.22520e-05
 Reference value :  2.22531e-05
 Reference value :  2.22543e-05
 Reference value :  2.22555e-05
 Reference value :  2.22592e-05
 Reference value :  2.23066e-05
 Reference value :  2.25000e-05
 Reference value :  2.25001e-05
 Reference value :  2.25003e-05
 Reference value :  2.25012e-05
 Reference value :  2.25026e-05
 Reference value :  2.25036e-05
 Reference value :  2.25057e-05
 Reference value :  2.25063e-05
 Reference value :  2.25089e-05
 Reference value :  2.25121e-05
 Reference value :  2.25716e-05
 Reference value :  2.27501e-05
 Reference value :  2.27503e-05
 Reference value :  2.27507e-05
 Reference value :  2.27520e-05
 Reference value :  2.27538e-05
 Reference value :  2.27549e-05
 Reference value :  2.27563e-05
 Reference value :  2.27590e-05
 Reference value :  2.27644e-05
 Reference value :  2.28028e-05
 Reference value :  2.30000e-05
 Reference value :  2.30012e-05
 Reference value :  2.30047e-05
 Reference value :  2.30068e-05
 Reference value :  2.30091e-05
 Reference value :  2.30119e-05
 Reference value :  2.30132e-05
 Reference value :  2.30152e-05
 Reference value :  2.30175e-05
 Reference value :  2.30213e-05
 Reference value :  2.30309e-05
 Reference value :  2.30629e-05
 Reference value :  2.32196e-05
 Reference value :  2.32501e-05
 Reference value :  2.32502e-05
 Reference value :  2.32502e-05
 Reference value :  2.32504e-05
 Reference value :  2.32516e-05
 Reference value :  2.32525e-05
 Reference value :  2.32537e-05
 Reference value :  2.32549e-05
 Reference value :  2.32575e-05
 Reference value :  2.32711e-05
 Reference value :  2.33539e-05
 Reference value :  2.35000e-05
 Reference value :  2.35001e-05
 Reference value :  2.35002e-05
 Reference value :  2.35005e-05
 Reference value :  2.35009e-05
 Reference value :  2.35016e-05
 Reference value :  2.35026e-05
 Reference value :  2.35036e-05
 Reference value :  2.35049e-05
 Reference value :  2.35063e-05
 Reference value :  2.35080e-05
 Reference value :  2.35098e-05
 Reference value :  2.35121e-05
 Reference value :  2.35716e-05
 Reference value :  2.37502e-05
 Reference value :  2.37503e-05
 Reference value :  2.37516e-05
 Reference value :  2.37525e-05
 Reference value :  2.37538e-05
 Reference value :  2.37549e-05
 Reference value :  2.37563e-05
 Reference value :  2.37699e-05
 Reference value :  2.40000e-05
 Reference value :  2.40001e-05
 Reference value :  2.40001e-05
 Reference value :  2.40003e-05
 Reference value :  2.40009e-05
 Reference value :  2.40016e-05
 Reference value :  2.40026e-05
 Reference value :  2.40031e-05
 Reference value :  2.40042e-05
 Reference value :  2.40052e-05
 Reference value :  2.40073e-05
 Reference value :  2.40103e-05
 Reference value :  2.40119e-05
 Reference value :  2.40145e-05
 Reference value :  2.40165e-05
 Reference value :  2.40187e-05
 Reference value :  2.40244e-05
 Reference value :  2.40766e-05
 Reference value :  2.42501e-05
 Reference value :  2.42502e-05
 Reference value :  2.42502e-05
 Reference value :  2.42503e-05
 Reference value :  2.42511e-05
 Reference value :  2.42520e-05
 Reference value :  2.42525e-05
 Reference value :  2.42532e-05
 Reference value :  2.42538e-05
 Reference value :  2.42550e-05
 Reference value :  2.42557e-05
 Reference value :  2.42581e-05
 Reference value :  2.42857e-05
 Reference value :  2.45000e-05
 Reference value :  2.45001e-05
 Reference value :  2.45002e-05
 Reference value :  2.45009e-05
 Reference value :  2.45021e-05
 Reference value :  2.45036e-05
 Reference value :  2.45057e-05
 Reference value :  2.45070e-05
 Reference value :  2.45089e-05
 Reference value :  2.45144e-05
 Reference value :  2.45716e-05
 Reference value :  2.47501e-05
 Reference value :  2.47502e-05
 Reference value :  2.47503e-05
 Reference value :  2.47511e-05
 Reference value :  2.47520e-05
 Reference value :  2.47532e-05
 Reference value :  2.47538e-05
 Reference value :  2.47549e-05
 Reference value :  2.47563e-05
 Reference value :  2.47644e-05
 Reference value :  2.50000e-05
 Reference value :  2.50001e-05
 Reference value :  2.50003e-05
 Reference value :  2.50009e-05
 Reference value :  2.50021e-05
 Reference value :  2.50031e-05
 Reference value :  2.50042e-05
 Reference value :  2.50053e-05
 Reference value :  2.50074e-05
 Reference value :  2.50101e-05
 Reference value :  2.50411e-05
 Reference value :  2.52501e-05
 Reference value :  2.52502e-05
 Reference value :  2.52507e-05
 Reference value :  2.52520e-05
 Reference value :  2.52539e-05
 Reference value :  2.52568e-05
 Reference value :  2.52631e-05
 Reference value :  2.53191e-05
 Reference value :  2.55000e-05
 Reference value :  2.55002e-05
 Reference value :  2.55005e-05
 Reference value :  2.55019e-05
 Reference value :  2.55036e-05
 Reference value :  2.55047e-05
 Reference value :  2.55059e-05
 Reference value :  2.55096e-05
 Reference value :  2.55229e-05
 Reference value :  2.55289e-05
 Reference value :  2.55331e-05
 Reference value :  2.55363e-05
 Reference value :  2.55390e-05
 Reference value :  2.55412e-05
 Reference value :  2.55441e-05
 Reference value :  2.55492e-05
 Reference value :  2.55587e-05
 Reference value :  2.55822e-05
 Reference value :  2.56326e-05
 Reference value :  2.56634e-05
 Reference value :  2.56841e-05
 Reference value :  2.57138e-05
 Reference value :  2.57501e-05
 Reference value :  2.57502e-05
 Reference value :  2.57503e-05
 Reference value :  2.57516e-05
 Reference value :  2.57532e-05
 Reference value :  2.57550e-05
 Reference value :  2.57597e-05
 Reference value :  2.57859e-05
 Reference value :  2.60000e-05
 Reference value :  2.60001e-05
 Reference value :  2.60003e-05
 Reference value :  2.60012e-05
 Reference value :  2.60020e-05
 Reference value :  2.60030e-05
 Reference value :  2.60041e-05
 Reference value :  2.60070e-05
 Reference value :  2.60099e-05
 Reference value :  2.60126e-05
 Reference value :  2.60256e-05
 Reference value :  2.62501e-05
 Reference value :  2.62502e-05
 Reference value :  2.62507e-05
 Reference value :  2.62525e-05
 Reference value :  2.62538e-05
 Reference value :  2.62555e-05
 Reference value :  2.62576e-05
 Reference value :  2.62610e-05
 Reference value :  2.62972e-05
 Reference value :  2.65000e-05
 Reference value :  2.65008e-05
 Reference value :  2.65032e-05
 Reference value :  2.65046e-05
 Reference value :  2.65065e-05
 Reference value :  2.65085e-05
 Reference value :  2.65117e-05
 Reference value :  2.65162e-05
 Reference value :  2.65195e-05
 Reference value :  2.65511e-05
 Reference value :  2.67501e-05
 Reference value :  2.67503e-05
 Reference value :  2.67516e-05
 Reference value :  2.67532e-05
 Reference value :  2.67549e-05
 Reference value :  2.67579e-05
 Reference value :  2.67715e-05
 Reference value :  2.69564e-05
 Reference value :  2.70001e-05
 Reference value :  2.70003e-05
 Reference value :  2.70016e-05
 Reference value :  2.70030e-05
 Reference value :  2.70049e-05
 Reference value :  2.70062e-05
 Reference value :  2.70089e-05
 Reference value :  2.70145e-05
 Reference value :  2.72398e-05
 Reference value :  2.72502e-05
 Reference value :  2.72504e-05
 Reference value :  2.72520e-05
 Reference value :  2.72538e-05
 Reference value :  2.72555e-05
 Reference value :  2.72589e-05
 Reference value :  2.72742e-05
 Reference value :  2.74040e-05
 Reference value :  2.75001e-05
 Reference value :  2.75005e-05
 Reference value :  2.75012e-05
 Reference value :  2.75021e-05
 Reference value :  2.75036e-05
 Reference value :  2.75052e-05
 Reference value :  2.75071e-05
 Reference value :  2.75092e-05
 Reference value :  2.75101e-05
 Reference value :  2.75120e-05
 Reference value :  2.75137e-05
 Reference value :  2.75153e-05
 Reference value :  2.75181e-05
 Reference value :  2.75226e-05
 Reference value :  2.75534e-05
 Reference value :  2.76537e-05
 Reference value :  2.77285e-05
 Reference value :  2.77501e-05
 Reference value :  2.77502e-05
 Reference value :  2.77504e-05
 Reference value :  2.77516e-05
 Reference value :  2.77525e-05
 Reference value :  2.77538e-05
 Reference value :  2.77564e-05
 Reference value :  2.77724e-05
 Reference value :  2.79956e-05
 Reference value :  2.80001e-05
 Reference value :  2.80001e-05
 Reference value :  2.80002e-05
 Reference value :  2.80009e-05
 Reference value :  2.80016e-05
 Reference value :  2.80026e-05
 Reference value :  2.80036e-05
 Reference value :  2.80064e-05
 Reference value :  2.80081e-05
 Reference value :  2.80099e-05
 Reference value :  2.80121e-05
 Reference value :  2.80274e-05
 Reference value :  2.81447e-05
 Reference value :  2.82501e-05
 Reference value :  2.82502e-05
 Reference value :  2.82502e-05
 Reference value :  2.82504e-05
 Reference value :  2.82520e-05
 Reference value :  2.82538e-05
 Reference value :  2.82555e-05
 Reference value :  2.82612e-05
 Reference value :  2.83466e-05
 Reference value :  2.85000e-05
 Reference value :  2.85001e-05
 Reference value :  2.85005e-05
 Reference value :  2.85016e-05
 Reference value :  2.85031e-05
 Reference value :  2.85047e-05
 Reference value :  2.85065e-05
 Reference value :  2.85103e-05
 Reference value :  2.85134e-05
 Reference value :  2.85156e-05
 Reference value :  2.85175e-05
 Reference value :  2.85198e-05
 Reference value :  2.85293e-05
 Reference value :  2.85433e-05
 Reference value :  2.85489e-05
 Reference value :  2.85587e-05
 Reference value :  2.85673e-05
 Reference value :  2.85843e-05
 Reference value :  2.86118e-05
 Reference value :  2.87501e-05
 Reference value :  2.87502e-05
 Reference value :  2.87503e-05
 Reference value :  2.87511e-05
 Reference value :  2.87520e-05
 Reference value :  2.87532e-05
 Reference value :  2.87543e-05
 Reference value :  2.87565e-05
 Reference value :  2.87625e-05
 Reference value :  2.88125e-05
 Reference value :  2.90005e-05
 Reference value :  2.90019e-05
 Reference value :  2.90030e-05
 Reference value :  2.90042e-05
 Reference value :  2.90057e-05
 Reference value :  2.90063e-05
 Reference value :  2.90080e-05
 Reference value :  2.90089e-05
 Reference value :  2.90109e-05
 Reference value :  2.90189e-05
 Reference value :  2.90738e-05
 Reference value :  2.92501e-05
 Reference value :  2.92502e-05
 Reference value :  2.92503e-05
 Reference value :  2.92511e-05
 Reference value :  2.92520e-05
 Reference value :  2.92532e-05
 Reference value :  2.92544e-05
 Reference value :  2.92555e-05
 Reference value :  2.92570e-05
 Reference value :  2.92604e-05
 Reference value :  2.92743e-05
 Reference value :  2.94088e-05
 Reference value :  2.95000e-05
 Reference value :  2.95001e-05
 Reference value :  2.95002e-05
 Reference value :  2.95009e-05
 Reference value :  2.95016e-05
 Reference value :  2.95031e-05
 Reference value :  2.95047e-05
 Reference value :  2.95057e-05
 Reference value :  2.95071e-05
 Reference value :  2.95092e-05
 Reference value :  2.95101e-05
 Reference value :  2.95120e-05
 Reference value :  2.95137e-05
 Reference value :  2.95152e-05
 Reference value :  2.95181e-05
 Reference value :  2.95251e-05
 Reference value :  2.95479e-05
 Reference value :  2.95695e-05
 Reference value :  2.95898e-05
 Reference value :  2.95983e-05
 Reference value :  2.96102e-05
 Reference value :  2.96352e-05
 Reference value :  2.97055e-05
 Reference value :  2.97501e-05
 Reference value :  2.97502e-05
 Reference value :  2.97503e-05
 Reference value :  2.97507e-05
 Reference value :  2.97520e-05
 Reference value :  2.97537e-05
 Reference value :  2.97557e-05
 Reference value :  2.97597e-05
 Reference value :  2.97728e-05
 Reference value :  2.97920e-05
 Reference value :  2.98473e-05
 Reference value :  3.00000e-05
 Reference value :  3.00001e-05
 Reference value :  3.00002e-05
 Reference value :  3.00005e-05
 Reference value :  3.00012e-05
 Reference value :  3.00020e-05
 Reference value :  3.00030e-05
 Reference value :  3.00041e-05
 Reference value :  3.00056e-05
 Reference value :  3.00062e-05
 Reference value :  3.00079e-05
 Reference value :  3.00111e-05
 Reference value :  3.00262e-05
 Reference value :  3.02403e-05
 Reference value :  3.02502e-05
 Reference value :  3.02503e-05
 Reference value :  3.02511e-05
 Reference value :  3.02525e-05
 Reference value :  3.02538e-05
 Reference value :  3.02549e-05
 Reference value :  3.02562e-05
 Reference value :  3.02589e-05
 Reference value :  3.02679e-05
 Reference value :  3.03362e-05
 Reference value :  3.05015e-05
 Reference value :  3.05061e-05
 Reference value :  3.05101e-05
 Reference value :  3.05123e-05
 Reference value :  3.05143e-05
 Reference value :  3.05182e-05
 Reference value :  3.05243e-05
 Reference value :  3.05386e-05
 Reference value :  3.05475e-05
 Reference value :  3.06234e-05
 Reference value :  3.07501e-05
 Reference value :  3.07503e-05
 Reference value :  3.07511e-05
 Reference value :  3.07525e-05
 Reference value :  3.07543e-05
 Reference value :  3.07564e-05
 Reference value :  3.08090e-05
 Reference value :  3.10001e-05
 Reference value :  3.10002e-05
 Reference value :  3.10009e-05
 Reference value :  3.10016e-05
 Reference value :  3.10031e-05
 Reference value :  3.10057e-05
 Reference value :  3.10079e-05
 Reference value :  3.10109e-05
 Reference value :  3.10190e-05
 Reference value :  3.12501e-05
 Reference value :  3.12502e-05
 Reference value :  3.12503e-05
 Reference value :  3.12520e-05
 Reference value :  3.12538e-05
 Reference value :  3.12563e-05
 Reference value :  3.12809e-05
 Reference value :  3.15000e-05
 Reference value :  3.15001e-05
 Reference value :  3.15003e-05
 Reference value :  3.15012e-05
 Reference value :  3.15026e-05
 Reference value :  3.15036e-05
 Reference value :  3.15052e-05
 Reference value :  3.15073e-05
 Reference value :  3.15103e-05
 Reference value :  3.15134e-05
 Reference value :  3.15156e-05
 Reference value :  3.15187e-05
 Reference value :  3.15242e-05
 Reference value :  3.15594e-05
 Reference value :  3.16895e-05
 Reference value :  3.17501e-05
 Reference value :  3.17502e-05
 Reference value :  3.17503e-05
 Reference value :  3.17507e-05
 Reference value :  3.17516e-05
 Reference value :  3.17525e-05
 Reference value :  3.17538e-05
 Reference value :  3.17550e-05
 Reference value :  3.17565e-05
 Reference value :  3.17597e-05
 Reference value :  3.17658e-05
 Reference value :  3.18120e-05
 Reference value :  3.20000e-05
 Reference value :  3.20000e-05
 Reference value :  3.20001e-05
 Reference value :  3.20002e-05
 Reference value :  3.20003e-05
 Reference value :  3.20009e-05
 Reference value :  3.20016e-05
 Reference value :  3.20031e-05
 Reference value :  3.20049e-05
 Reference value :  3.20070e-05
 Reference value :  3.20098e-05
 Reference value :  3.20261e-05
 Reference value :  3.22501e-05
 Reference value :  3.22502e-05
 Reference value :  3.22511e-05
 Reference value :  3.22525e-05
 Reference value :  3.22538e-05
 Reference value :  3.22555e-05
 Reference value :  3.22613e-05
 Reference value :  3.23474e-05
 Reference value :  3.25000e-05
 Reference value :  3.25002e-05
 Reference value :  3.25009e-05
 Reference value :  3.25021e-05
 Reference value :  3.25031e-05
 Reference value :  3.25042e-05
 Reference value :  3.25052e-05
 Reference value :  3.25087e-05
 Reference value :  3.25119e-05
 Reference value :  3.25145e-05
 Reference value :  3.25176e-05
 Reference value :  3.25242e-05
 Reference value :  3.25871e-05
 Reference value :  3.26239e-05
 Reference value :  3.27239e-05
 Reference value :  3.27502e-05
 Reference value :  3.27504e-05
 Reference value :  3.27516e-05
 Reference value :  3.27520e-05
 Reference value :  3.27532e-05
 Reference value :  3.27537e-05
 Reference value :  3.27550e-05
 Reference value :  3.27565e-05
 Reference value :  3.27597e-05
 Reference value :  3.27727e-05
 Reference value :  3.28130e-05
 Reference value :  3.29743e-05
 Reference value :  3.30000e-05
 Reference value :  3.30001e-05
 Reference value :  3.30001e-05
 Reference value :  3.30002e-05
 Reference value :  3.30005e-05
 Reference value :  3.30009e-05
 Reference value :  3.30012e-05
 Reference value :  3.30016e-05
 Reference value :  3.30025e-05
 Reference value :  3.30030e-05
 Reference value :  3.30041e-05
 Reference value :  3.30056e-05
 Reference value :  3.30062e-05
 Reference value :  3.30089e-05
 Reference value :  3.30191e-05
 Reference value :  3.32501e-05
 Reference value :  3.32502e-05
 Reference value :  3.32507e-05
 Reference value :  3.32525e-05
 Reference value :  3.32544e-05
 Reference value :  3.32562e-05
 Reference value :  3.32620e-05
 Reference value :  3.33013e-05
 Reference value :  3.34029e-05
 Reference value :  3.35000e-05
 Reference value :  3.35015e-05
 Reference value :  3.35046e-05
 Reference value :  3.35062e-05
 Reference value :  3.35102e-05
 Reference value :  3.35139e-05
 Reference value :  3.35251e-05
 Reference value :  3.35721e-05
 Reference value :  3.36264e-05
 Reference value :  3.37501e-05
 Reference value :  3.37503e-05
 Reference value :  3.37520e-05
 Reference value :  3.37539e-05
 Reference value :  3.37582e-05
 Reference value :  3.37732e-05
 Reference value :  3.40000e-05
 Reference value :  3.40001e-05
 Reference value :  3.40001e-05
 Reference value :  3.40002e-05
 Reference value :  3.40006e-05
 Reference value :  3.40020e-05
 Reference value :  3.40031e-05
 Reference value :  3.40043e-05
 Reference value :  3.40053e-05
 Reference value :  3.40081e-05
 Reference value :  3.40240e-05
 Reference value :  3.40296e-05
 Reference value :  3.40335e-05
 Reference value :  3.40385e-05
 Reference value :  3.40419e-05
 Reference value :  3.40458e-05
 Reference value :  3.40591e-05
 Reference value :  3.41072e-05
 Reference value :  3.41316e-05
 Reference value :  3.41489e-05
 Reference value :  3.41907e-05
 Reference value :  3.42501e-05
 Reference value :  3.42503e-05
 Reference value :  3.42516e-05
 Reference value :  3.42532e-05
 Reference value :  3.42550e-05
 Reference value :  3.42625e-05
 Reference value :  3.45000e-05
 Reference value :  3.45001e-05
 Reference value :  3.45005e-05
 Reference value :  3.45016e-05
 Reference value :  3.45030e-05
 Reference value :  3.45049e-05
 Reference value :  3.45099e-05
 Reference value :  3.45126e-05
 Reference value :  3.45215e-05
 Reference value :  3.47191e-05
 Reference value :  3.47502e-05
 Reference value :  3.47504e-05
 Reference value :  3.47520e-05
 Reference value :  3.47538e-05
 Reference value :  3.47555e-05
 Reference value :  3.47569e-05
 Reference value :  3.47585e-05
 Reference value :  3.47630e-05
 Reference value :  3.47845e-05
 Reference value :  3.48891e-05
 Reference value :  3.50000e-05
 Reference value :  3.50001e-05
 Reference value :  3.50002e-05
 Reference value :  3.50009e-05
 Reference value :  3.50016e-05
 Reference value :  3.50031e-05
 Reference value :  3.50047e-05
 Reference value :  3.50057e-05
 Reference value :  3.50071e-05
 Reference value :  3.50081e-05
 Reference value :  3.50101e-05
 Reference value :  3.50120e-05
 Reference value :  3.50137e-05
 Reference value :  3.50153e-05
 Reference value :  3.50181e-05
 Reference value :  3.50209e-05
 Reference value :  3.50407e-05
 Reference value :  3.52501e-05
 Reference value :  3.52502e-05
 Reference value :  3.52502e-05
 Reference value :  3.52504e-05
 Reference value :  3.52516e-05
 Reference value :  3.52525e-05
 Reference value :  3.52538e-05
 Reference value :  3.52550e-05
 Reference value :  3.52580e-05
 Reference value :  3.52656e-05
 Reference value :  3.53616e-05
 Reference value :  3.55000e-05
 Reference value :  3.55001e-05
 Reference value :  3.55001e-05
 Reference value :  3.55002e-05
 Reference value :  3.55005e-05
 Reference value :  3.55009e-05
 Reference value :  3.55016e-05
 Reference value :  3.55025e-05
 Reference value :  3.55030e-05
 Reference value :  3.55041e-05
 Reference value :  3.55056e-05
 Reference value :  3.55062e-05
 Reference value :  3.55079e-05
 Reference value :  3.55099e-05
 Reference value :  3.55122e-05
 Reference value :  3.55191e-05
 Reference value :  3.55691e-05
 Reference value :  3.57501e-05
 Reference value :  3.57501e-05
 Reference value :  3.57502e-05
 Reference value :  3.57503e-05
 Reference value :  3.57507e-05
 Reference value :  3.57516e-05
 Reference value :  3.57525e-05
 Reference value :  3.57538e-05
 Reference value :  3.57549e-05
 Reference value :  3.57570e-05
 Reference value :  3.57621e-05
 Reference value :  3.58359e-05
 Reference value :  3.60017e-05
 Reference value :  3.60070e-05
 Reference value :  3.60102e-05
 Reference value :  3.60129e-05
 Reference value :  3.60151e-05
 Reference value :  3.60162e-05
 Reference value :  3.60207e-05
 Reference value :  3.60369e-05
 Reference value :  3.61418e-05
 Reference value :  3.62233e-05
 Reference value :  3.62501e-05
 Reference value :  3.62502e-05
 Reference value :  3.62503e-05
 Reference value :  3.62511e-05
 Reference value :  3.62520e-05
 Reference value :  3.62531e-05
 Reference value :  3.62543e-05
 Reference value :  3.62555e-05
 Reference value :  3.62593e-05
 Reference value :  3.62717e-05
 Reference value :  3.63024e-05
 Reference value :  3.65000e-05
 Reference value :  3.65001e-05
 Reference value :  3.65002e-05
 Reference value :  3.65009e-05
 Reference value :  3.65016e-05
 Reference value :  3.65031e-05
 Reference value :  3.65049e-05
 Reference value :  3.65063e-05
 Reference value :  3.65080e-05
 Reference value :  3.65099e-05
 Reference value :  3.65121e-05
 Reference value :  3.65265e-05
 Reference value :  3.66320e-05
 Reference value :  3.67501e-05
 Reference value :  3.67502e-05
 Reference value :  3.67503e-05
 Reference value :  3.67511e-05
 Reference value :  3.67520e-05
 Reference value :  3.67538e-05
 Reference value :  3.67549e-05
 Reference value :  3.67563e-05
 Reference value :  3.67644e-05
 Reference value :  3.68464e-05
 Reference value :  3.70000e-05
 Reference value :  3.70001e-05
 Reference value :  3.70002e-05
 Reference value :  3.70009e-05
 Reference value :  3.70016e-05
 Reference value :  3.70031e-05
 Reference value :  3.70042e-05
 Reference value :  3.70052e-05
 Reference value :  3.70073e-05
 Reference value :  3.70103e-05
 Reference value :  3.70134e-05
 Reference value :  3.70145e-05
 Reference value :  3.70165e-05
 Reference value :  3.70187e-05
 Reference value :  3.70243e-05
 Reference value :  3.70361e-05
 Reference value :  3.70474e-05
 Reference value :  3.70560e-05
 Reference value :  3.70642e-05
 Reference value :  3.70748e-05
 Reference value :  3.70946e-05
 Reference value :  3.71517e-05
 Reference value :  3.72501e-05
 Reference value :  3.72502e-05
 Reference value :  3.72502e-05
 Reference value :  3.72503e-05
 Reference value :  3.72507e-05
 Reference value :  3.72516e-05
 Reference value :  3.72525e-05
 Reference value :  3.72537e-05
 Reference value :  3.72550e-05
 Reference value :  3.72565e-05
 Reference value :  3.72625e-05
 Reference value :  3.72859e-05
 Reference value :  3.74723e-05
 Reference value :  3.75000e-05
 Reference value :  3.75001e-05
 Reference value :  3.75002e-05
 Reference value :  3.75005e-05
 Reference value :  3.75012e-05
 Reference value :  3.75020e-05
 Reference value :  3.75030e-05
 Reference value :  3.75041e-05
 Reference value :  3.75056e-05
 Reference value :  3.75062e-05
 Reference value :  3.75080e-05
 Reference value :  3.75099e-05
 Reference value :  3.75122e-05
 Reference value :  3.75262e-05
 Reference value :  3.76256e-05
 Reference value :  3.77501e-05
 Reference value :  3.77502e-05
 Reference value :  3.77502e-05
 Reference value :  3.77504e-05
 Reference value :  3.77511e-05
 Reference value :  3.77520e-05
 Reference value :  3.77532e-05
 Reference value :  3.77538e-05
 Reference value :  3.77549e-05
 Reference value :  3.77562e-05
 Reference value :  3.77589e-05
 Reference value :  3.77621e-05
 Reference value :  3.78016e-05
 Reference value :  3.80000e-05
 Reference value :  3.80001e-05
 Reference value :  3.80002e-05
 Reference value :  3.80005e-05
 Reference value :  3.80012e-05
 Reference value :  3.80021e-05
 Reference value :  3.80031e-05
 Reference value :  3.80042e-05
 Reference value :  3.80052e-05
 Reference value :  3.80064e-05
 Reference value :  3.80081e-05
 Reference value :  3.80101e-05
 Reference value :  3.80120e-05
 Reference value :  3.80137e-05
 Reference value :  3.80152e-05
 Reference value :  3.80181e-05
 Reference value :  3.80224e-05
 Reference value :  3.80481e-05
 Reference value :  3.80737e-05
 Reference value :  3.80987e-05
 Reference value :  3.81203e-05
 Reference value :  3.81521e-05
 Reference value :  3.81759e-05
 Reference value :  3.82257e-05
 Reference value :  3.82501e-05
 Reference value :  3.82502e-05
 Reference value :  3.82504e-05
 Reference value :  3.82520e-05
 Reference value :  3.82538e-05
 Reference value :  3.82556e-05
 Reference value :  3.82624e-05
 Reference value :  3.83105e-05
 Reference value :  3.85015e-05
 Reference value :  3.85062e-05
 Reference value :  3.85094e-05
 Reference value :  3.85122e-05
 Reference value :  3.85189e-05
 Reference value :  3.85595e-05
 Reference value :  3.87501e-05
 Reference value :  3.87502e-05
 Reference value :  3.87504e-05
 Reference value :  3.87516e-05
 Reference value :  3.87525e-05
 Reference value :  3.87537e-05
 Reference value :  3.87548e-05
 Reference value :  3.87562e-05
 Reference value :  3.87588e-05
 Reference value :  3.87644e-05
 Reference value :  3.87968e-05
 Reference value :  3.89714e-05
 Reference value :  3.90000e-05
 Reference value :  3.90001e-05
 Reference value :  3.90002e-05
 Reference value :  3.90009e-05
 Reference value :  3.90016e-05
 Reference value :  3.90031e-05
 Reference value :  3.90047e-05
 Reference value :  3.90057e-05
 Reference value :  3.90081e-05
 Reference value :  3.90101e-05
 Reference value :  3.90120e-05
 Reference value :  3.90137e-05
 Reference value :  3.90153e-05
 Reference value :  3.90172e-05
 Reference value :  3.90192e-05
 Reference value :  3.90259e-05
 Reference value :  3.90448e-05
 Reference value :  3.90534e-05
 Reference value :  3.90600e-05
 Reference value :  3.90868e-05
 Reference value :  3.91693e-05
 Reference value :  3.92501e-05
 Reference value :  3.92502e-05
 Reference value :  3.92502e-05
 Reference value :  3.92503e-05
 Reference value :  3.92507e-05
 Reference value :  3.92520e-05
 Reference value :  3.92538e-05
 Reference value :  3.92550e-05
 Reference value :  3.92625e-05
 Reference value :  3.94690e-05
 Reference value :  3.95001e-05
 Reference value :  3.95009e-05
 Reference value :  3.95026e-05
 Reference value :  3.95042e-05
 Reference value :  3.95063e-05
 Reference value :  3.95079e-05
 Reference value :  3.95121e-05
 Reference value :  3.96319e-05
 Reference value :  3.97502e-05
 Reference value :  3.97504e-05
 Reference value :  3.97520e-05
 Reference value :  3.97538e-05
 Reference value :  3.97555e-05
 Reference value :  3.97572e-05
 Reference value :  3.97700e-05
 Reference value :  3.99354e-05
 Reference value :  4.00001e-05
 Reference value :  4.00002e-05
 Reference value :  4.00012e-05
 Reference value :  4.00026e-05
 Reference value :  4.00042e-05
 Reference value :  4.00052e-05
 Reference value :  4.00087e-05
 Reference value :  4.00119e-05
 Reference value :  4.00145e-05
 Reference value :  4.00165e-05
 Reference value :  4.00199e-05
 Reference value :  4.00375e-05
 Reference value :  4.01206e-05
 Reference value :  4.02394e-05
 Reference value :  4.02501e-05
 Reference value :  4.02502e-05
 Reference value :  4.02503e-05
 Reference value :  4.02511e-05
 Reference value :  4.02520e-05
 Reference value :  4.02532e-05
 Reference value :  4.02543e-05
 Reference value :  4.02565e-05
 Reference value :  4.02627e-05
 Reference value :  4.03136e-05
 Reference value :  4.04780e-05
 Reference value :  4.05000e-05
 Reference value :  4.05001e-05
 Reference value :  4.05002e-05
 Reference value :  4.05003e-05
 Reference value :  4.05009e-05
 Reference value :  4.05016e-05
 Reference value :  4.05025e-05
 Reference value :  4.05030e-05
 Reference value :  4.05041e-05
 Reference value :  4.05056e-05
 Reference value :  4.05063e-05
 Reference value :  4.05080e-05
 Reference value :  4.05099e-05
 Reference value :  4.05122e-05
 Reference value :  4.05262e-05
 Reference value :  4.06256e-05
 Reference value :  4.07501e-05
 Reference value :  4.07502e-05
 Reference value :  4.07503e-05
 Reference value :  4.07511e-05
 Reference value :  4.07520e-05
 Reference value :  4.07532e-05
 Reference value :  4.07544e-05
 Reference value :  4.07555e-05
 Reference value :  4.07562e-05
 Reference value :  4.07579e-05
 Reference value :  4.07621e-05
 Reference value :  4.07743e-05
 Reference value :  4.08019e-05
 Reference value :  4.10000e-05
 Reference value :  4.10015e-05
 Reference value :  4.10045e-05
 Reference value :  4.10061e-05
 Reference value :  4.10089e-05
 Reference value :  4.10101e-05
 Reference value :  4.10113e-05
 Reference value :  4.10123e-05
 Reference value :  4.10135e-05
 Reference value :  4.10143e-05
 Reference value :  4.10152e-05
 Reference value :  4.10161e-05
 Reference value :  4.10171e-05
 Reference value :  4.10180e-05
 Reference value :  4.10190e-05
 Reference value :  4.10201e-05
 Reference value :  4.10239e-05
 Reference value :  4.10394e-05
 Reference value :  4.10602e-05
 Reference value :  4.10670e-05
 Reference value :  4.10826e-05
 Reference value :  4.11092e-05
 Reference value :  4.11417e-05
 Reference value :  4.12501e-05
 Reference value :  4.12501e-05
 Reference value :  4.12502e-05
 Reference value :  4.12503e-05
 Reference value :  4.12511e-05
 Reference value :  4.12520e-05
 Reference value :  4.12532e-05
 Reference value :  4.12537e-05
 Reference value :  4.12549e-05
 Reference value :  4.12576e-05
 Reference value :  4.12649e-05
 Reference value :  4.13087e-05
 Reference value :  4.15000e-05
 Reference value :  4.15001e-05
 Reference value :  4.15001e-05
 Reference value :  4.15002e-05
 Reference value :  4.15005e-05
 Reference value :  4.15012e-05
 Reference value :  4.15021e-05
 Reference value :  4.15031e-05
 Reference value :  4.15049e-05
 Reference value :  4.15063e-05
 Reference value :  4.15079e-05
 Reference value :  4.15109e-05
 Reference value :  4.15415e-05
 Reference value :  4.17501e-05
 Reference value :  4.17502e-05
 Reference value :  4.17503e-05
 Reference value :  4.17511e-05
 Reference value :  4.17520e-05
 Reference value :  4.17532e-05
 Reference value :  4.17538e-05
 Reference value :  4.17555e-05
 Reference value :  4.17590e-05
 Reference value :  4.17809e-05
 Reference value :  4.20000e-05
 Reference value :  4.20001e-05
 Reference value :  4.20005e-05
 Reference value :  4.20016e-05
 Reference value :  4.20031e-05
 Reference value :  4.20047e-05
 Reference value :  4.20058e-05
 Reference value :  4.20082e-05
 Reference value :  4.20112e-05
 Reference value :  4.20409e-05
 Reference value :  4.22501e-05
 Reference value :  4.22502e-05
 Reference value :  4.22503e-05
 Reference value :  4.22511e-05
 Reference value :  4.22520e-05
 Reference value :  4.22532e-05
 Reference value :  4.22548e-05
 Reference value :  4.22568e-05
 Reference value :  4.22601e-05
 Reference value :  4.22668e-05
 Reference value :  4.23789e-05
 Reference value :  4.25000e-05
 Reference value :  4.25000e-05
 Reference value :  4.25001e-05
 Reference value :  4.25001e-05
 Reference value :  4.25002e-05
 Reference value :  4.25006e-05
 Reference value :  4.25014e-05
 Reference value :  4.25025e-05
 Reference value :  4.25037e-05
 Reference value :  4.25047e-05
 Reference value :  4.25053e-05
 Reference value :  4.25060e-05
 Reference value :  4.25081e-05
 Reference value :  4.25129e-05
 Reference value :  4.25241e-05
 Reference value :  4.25296e-05
 Reference value :  4.25334e-05
 Reference value :  4.25364e-05
 Reference value :  4.25387e-05
 Reference value :  4.25408e-05
 Reference value :  4.25424e-05
 Reference value :  4.25436e-05
 Reference value :  4.25462e-05
 Reference value :  4.25476e-05
 Reference value :  4.25525e-05
 Reference value :  4.25636e-05
 Reference value :  4.25779e-05
 Reference value :  4.26051e-05
 Reference value :  4.26187e-05
 Reference value :  4.26383e-05
 Reference value :  4.26561e-05
 Reference value :  4.27333e-05
 Reference value :  4.27501e-05
 Reference value :  4.27502e-05
 Reference value :  4.27507e-05
 Reference value :  4.27520e-05
 Reference value :  4.27537e-05
 Reference value :  4.27565e-05
 Reference value :  4.27657e-05
 Reference value :  4.29697e-05
 Reference value :  4.30000e-05
 Reference value :  4.30001e-05
 Reference value :  4.30003e-05
 Reference value :  4.30012e-05
 Reference value :  4.30025e-05
 Reference value :  4.30036e-05
 Reference value :  4.30049e-05
 Reference value :  4.30086e-05
 Reference value :  4.30113e-05
 Reference value :  4.30126e-05
 Reference value :  4.30179e-05
 Reference value :  4.30486e-05
 Reference value :  4.32501e-05
 Reference value :  4.32502e-05
 Reference value :  4.32504e-05
 Reference value :  4.32516e-05
 Reference value :  4.32525e-05
 Reference value :  4.32538e-05
 Reference value :  4.32549e-05
 Reference value :  4.32569e-05
 Reference value :  4.32595e-05
 Reference value :  4.32700e-05
 Reference value :  4.33174e-05
 Reference value :  4.35006e-05
 Reference value :  4.35025e-05
 Reference value :  4.35037e-05
 Reference value :  4.35048e-05
 Reference value :  4.35058e-05
 Reference value :  4.35081e-05
 Reference value :  4.35102e-05
 Reference value :  4.35120e-05
 Reference value :  4.35137e-05
 Reference value :  4.35153e-05
 Reference value :  4.35180e-05
 Reference value :  4.35223e-05
 Reference value :  4.35503e-05
 Reference value :  4.36902e-05
 Reference value :  4.37502e-05
 Reference value :  4.37502e-05
 Reference value :  4.37507e-05
 Reference value :  4.37520e-05
 Reference value :  4.37537e-05
 Reference value :  4.37550e-05
 Reference value :  4.37595e-05
 Reference value :  4.37844e-05
 Reference value :  4.39605e-05
 Reference value :  4.40001e-05
 Reference value :  4.40001e-05
 Reference value :  4.40003e-05
 Reference value :  4.40009e-05
 Reference value :  4.40016e-05
 Reference value :  4.40030e-05
 Reference value :  4.40041e-05
 Reference value :  4.40056e-05
 Reference value :  4.40062e-05
 Reference value :  4.40079e-05
 Reference value :  4.40099e-05
 Reference value :  4.40145e-05
 Reference value :  4.40691e-05
 Reference value :  4.42501e-05
 Reference value :  4.42501e-05
 Reference value :  4.42502e-05
 Reference value :  4.42503e-05
 Reference value :  4.42507e-05
 Reference value :  4.42516e-05
 Reference value :  4.42525e-05
 Reference value :  4.42538e-05
 Reference value :  4.42549e-05
 Reference value :  4.42562e-05
 Reference value :  4.42589e-05
 Reference value :  4.42621e-05
 Reference value :  4.42742e-05
 Reference value :  4.43360e-05
 Reference value :  4.45000e-05
 Reference value :  4.45001e-05
 Reference value :  4.45002e-05
 Reference value :  4.45003e-05
 Reference value :  4.45009e-05
 Reference value :  4.45016e-05
 Reference value :  4.45026e-05
 Reference value :  4.45031e-05
 Reference value :  4.45042e-05
 Reference value :  4.45052e-05
 Reference value :  4.45064e-05
 Reference value :  4.45081e-05
 Reference value :  4.45101e-05
 Reference value :  4.45120e-05
 Reference value :  4.45137e-05
 Reference value :  4.45153e-05
 Reference value :  4.45171e-05
 Reference value :  4.45191e-05
 Reference value :  4.45255e-05
 Reference value :  4.45534e-05
 Reference value :  4.46637e-05
 Reference value :  4.47501e-05
 Reference value :  4.47502e-05
 Reference value :  4.47502e-05
 Reference value :  4.47504e-05
 Reference value :  4.47516e-05
 Reference value :  4.47525e-05
 Reference value :  4.47538e-05
 Reference value :  4.47550e-05
 Reference value :  4.47564e-05
 Reference value :  4.47596e-05
 Reference value :  4.47722e-05
 Reference value :  4.47982e-05
 Reference value :  4.48271e-05
 Reference value :  4.49220e-05
 Reference value :  4.50000e-05
 Reference value :  4.50001e-05
 Reference value :  4.50002e-05
 Reference value :  4.50009e-05
 Reference value :  4.50016e-05
 Reference value :  4.50031e-05
 Reference value :  4.50049e-05
 Reference value :  4.50063e-05
 Reference value :  4.50079e-05
 Reference value :  4.50109e-05
 Reference value :  4.50265e-05
 Reference value :  4.51319e-05
 Reference value :  4.52502e-05
 Reference value :  4.52503e-05
 Reference value :  4.52516e-05
 Reference value :  4.52532e-05
 Reference value :  4.52549e-05
 Reference value :  4.52590e-05
 Reference value :  4.53471e-05
 Reference value :  4.55001e-05
 Reference value :  4.55002e-05
 Reference value :  4.55005e-05
 Reference value :  4.55016e-05
 Reference value :  4.55031e-05
 Reference value :  4.55047e-05
 Reference value :  4.55058e-05
 Reference value :  4.55087e-05
 Reference value :  4.55103e-05
 Reference value :  4.55134e-05
 Reference value :  4.55156e-05
 Reference value :  4.55165e-05
 Reference value :  4.55187e-05
 Reference value :  4.55219e-05
 Reference value :  4.55353e-05
 Reference value :  4.55461e-05
 Reference value :  4.55548e-05
 Reference value :  4.55586e-05
 Reference value :  4.55671e-05
 Reference value :  4.55738e-05
 Reference value :  4.56051e-05
 Reference value :  4.57501e-05
 Reference value :  4.57502e-05
 Reference value :  4.57503e-05
 Reference value :  4.57507e-05
 Reference value :  4.57520e-05
 Reference value :  4.57537e-05
 Reference value :  4.57557e-05
 Reference value :  4.57597e-05
 Reference value :  4.57726e-05
 Reference value :  4.60000e-05
 Reference value :  4.60005e-05
 Reference value :  4.60019e-05
 Reference value :  4.60036e-05
 Reference value :  4.60057e-05
 Reference value :  4.60070e-05
 Reference value :  4.60090e-05
 Reference value :  4.60144e-05
 Reference value :  4.62501e-05
 Reference value :  4.62503e-05
 Reference value :  4.62516e-05
 Reference value :  4.62532e-05
 Reference value :  4.62544e-05
 Reference value :  4.62555e-05
 Reference value :  4.62579e-05
 Reference value :  4.62648e-05
 Reference value :  4.64088e-05
 Reference value :  4.65001e-05
 Reference value :  4.65002e-05
 Reference value :  4.65003e-05
 Reference value :  4.65009e-05
 Reference value :  4.65026e-05
 Reference value :  4.65042e-05
 Reference value :  4.65057e-05
 Reference value :  4.65081e-05
 Reference value :  4.65101e-05
 Reference value :  4.65120e-05
 Reference value :  4.65137e-05
 Reference value :  4.65152e-05
 Reference value :  4.65180e-05
 Reference value :  4.65254e-05
 Reference value :  4.65605e-05
 Reference value :  4.66237e-05
 Reference value :  4.67238e-05
 Reference value :  4.67501e-05
 Reference value :  4.67503e-05
 Reference value :  4.67511e-05
 Reference value :  4.67525e-05
 Reference value :  4.67538e-05
 Reference value :  4.67556e-05
 Reference value :  4.67656e-05
 Reference value :  4.69645e-05
 Reference value :  4.70000e-05
 Reference value :  4.70001e-05
 Reference value :  4.70003e-05
 Reference value :  4.70012e-05
 Reference value :  4.70020e-05
 Reference value :  4.70030e-05
 Reference value :  4.70049e-05
 Reference value :  4.70062e-05
[...]
 Reference value :  2.57250e-04
 Reference value :  2.57251e-04
 Reference value :  2.57252e-04
 Reference value :  2.57252e-04
 Reference value :  2.57253e-04
 Reference value :  2.57254e-04
 Reference value :  2.57256e-04
 Reference value :  2.57262e-04
 Reference value :  2.57266e-04
 Reference value :  2.57310e-04
 Reference value :  2.57500e-04
 Reference value :  2.57500e-04
 Reference value :  2.57501e-04
 Reference value :  2.57503e-04
 Reference value :  2.57504e-04
 Reference value :  2.57506e-04
 Reference value :  2.57510e-04
 Reference value :  2.57519e-04
 Reference value :  2.57569e-04
 Reference value :  2.57750e-04
 Reference value :  2.57750e-04
 Reference value :  2.57750e-04
 Reference value :  2.57752e-04
 Reference value :  2.57753e-04
 Reference value :  2.57754e-04
 Reference value :  2.57755e-04
 Reference value :  2.57757e-04
 Reference value :  2.57760e-04
 Reference value :  2.57774e-04
 Reference value :  2.57905e-04
 Reference value :  2.58000e-04
 Reference value :  2.58000e-04
 Reference value :  2.58001e-04
 Reference value :  2.58002e-04
 Reference value :  2.58003e-04
 Reference value :  2.58005e-04
 Reference value :  2.58008e-04
 Reference value :  2.58011e-04
 Reference value :  2.58014e-04
 Reference value :  2.58016e-04
 Reference value :  2.58021e-04
 Reference value :  2.58053e-04
 Reference value :  2.58134e-04
 Reference value :  2.58151e-04
 Reference value :  2.58161e-04
 Reference value :  2.58182e-04
 Reference value :  2.58196e-04
 Reference value :  2.58217e-04
 Reference value :  2.58250e-04
 Reference value :  2.58250e-04
 Reference value :  2.58250e-04
 Reference value :  2.58251e-04
 Reference value :  2.58252e-04
 Reference value :  2.58253e-04
 Reference value :  2.58254e-04
 Reference value :  2.58255e-04
 Reference value :  2.58260e-04
 Reference value :  2.58285e-04
 Reference value :  2.58500e-04
 Reference value :  2.58500e-04
 Reference value :  2.58500e-04
 Reference value :  2.58500e-04
 Reference value :  2.58501e-04
 Reference value :  2.58502e-04
 Reference value :  2.58503e-04
 Reference value :  2.58505e-04
 Reference value :  2.58506e-04
 Reference value :  2.58508e-04
 Reference value :  2.58510e-04
 Reference value :  2.58512e-04
 Reference value :  2.58542e-04
 Reference value :  2.58750e-04
 Reference value :  2.58750e-04
 Reference value :  2.58750e-04
 Reference value :  2.58752e-04
 Reference value :  2.58753e-04
 Reference value :  2.58754e-04
 Reference value :  2.58755e-04
 Reference value :  2.58756e-04
 Reference value :  2.58761e-04
 Reference value :  2.58781e-04
 Reference value :  2.59000e-04
 Reference value :  2.59000e-04
 Reference value :  2.59000e-04
 Reference value :  2.59000e-04
 Reference value :  2.59001e-04
 Reference value :  2.59002e-04
 Reference value :  2.59003e-04
 Reference value :  2.59004e-04
 Reference value :  2.59005e-04
 Reference value :  2.59007e-04
 Reference value :  2.59010e-04
 Reference value :  2.59012e-04
 Reference value :  2.59015e-04
 Reference value :  2.59016e-04
 Reference value :  2.59019e-04
 Reference value :  2.59024e-04
 Reference value :  2.59035e-04
 Reference value :  2.59047e-04
 Reference value :  2.59057e-04
 Reference value :  2.59067e-04
 Reference value :  2.59084e-04
 Reference value :  2.59115e-04
 Reference value :  2.59250e-04
 Reference value :  2.59250e-04
 Reference value :  2.59250e-04
 Reference value :  2.59251e-04
 Reference value :  2.59252e-04
 Reference value :  2.59254e-04
 Reference value :  2.59256e-04
 Reference value :  2.59260e-04
 Reference value :  2.59273e-04
 Reference value :  2.59366e-04
 Reference value :  2.59500e-04
 Reference value :  2.59500e-04
 Reference value :  2.59500e-04
 Reference value :  2.59501e-04
 Reference value :  2.59502e-04
 Reference value :  2.59503e-04
 Reference value :  2.59505e-04
 Reference value :  2.59506e-04
 Reference value :  2.59509e-04
 Reference value :  2.59511e-04
 Reference value :  2.59526e-04
 Reference value :  2.59626e-04
 Reference value :  2.59750e-04
 Reference value :  2.59750e-04
 Reference value :  2.59750e-04
 Reference value :  2.59751e-04
 Reference value :  2.59752e-04
 Reference value :  2.59753e-04
 Reference value :  2.59754e-04
 Reference value :  2.59755e-04
 Reference value :  2.59756e-04
 Reference value :  2.59759e-04
 Reference value :  2.59765e-04
 Reference value :  2.59784e-04
 Reference value :  2.59905e-04
 Reference value :  2.60000e-04
 Reference value :  2.60000e-04
 Reference value :  2.60001e-04
 Reference value :  2.60001e-04
 Reference value :  2.60003e-04
 Reference value :  2.60004e-04
 Reference value :  2.60005e-04
 Reference value :  2.60006e-04
 Reference value :  2.60008e-04
 Reference value :  2.60010e-04
 Reference value :  2.60012e-04
 Reference value :  2.60014e-04
 Reference value :  2.60016e-04
 Reference value :  2.60018e-04
 Reference value :  2.60023e-04
 Reference value :  2.60039e-04
 Reference value :  2.60067e-04
 Reference value :  2.60141e-04
 Reference value :  2.60231e-04
 Reference value :  2.60250e-04
 Reference value :  2.60250e-04
 Reference value :  2.60251e-04
 Reference value :  2.60252e-04
 Reference value :  2.60253e-04
 Reference value :  2.60254e-04
 Reference value :  2.60256e-04
 Reference value :  2.60262e-04
 Reference value :  2.60310e-04
 Reference value :  2.60500e-04
 Reference value :  2.60500e-04
 Reference value :  2.60501e-04
 Reference value :  2.60502e-04
 Reference value :  2.60503e-04
 Reference value :  2.60504e-04
 Reference value :  2.60506e-04
 Reference value :  2.60506e-04
 Reference value :  2.60508e-04
 Reference value :  2.60510e-04
 Reference value :  2.60511e-04
 Reference value :  2.60515e-04
 Reference value :  2.60526e-04
 Reference value :  2.60569e-04
 Reference value :  2.60750e-04
 Reference value :  2.60750e-04
 Reference value :  2.60750e-04
 Reference value :  2.60751e-04
 Reference value :  2.60752e-04
 Reference value :  2.60753e-04
 Reference value :  2.60754e-04
 Reference value :  2.60755e-04
 Reference value :  2.60757e-04
 Reference value :  2.60760e-04
 Reference value :  2.60768e-04
 Reference value :  2.60802e-04
 Reference value :  2.61000e-04
 Reference value :  2.61000e-04
 Reference value :  2.61000e-04
 Reference value :  2.61000e-04
 Reference value :  2.61001e-04
 Reference value :  2.61001e-04
 Reference value :  2.61002e-04
 Reference value :  2.61003e-04
 Reference value :  2.61004e-04
 Reference value :  2.61005e-04
 Reference value :  2.61006e-04
 Reference value :  2.61008e-04
 Reference value :  2.61010e-04
 Reference value :  2.61012e-04
 Reference value :  2.61014e-04
 Reference value :  2.61015e-04
 Reference value :  2.61017e-04
 Reference value :  2.61018e-04
 Reference value :  2.61019e-04
 Reference value :  2.61021e-04
 Reference value :  2.61026e-04
 Reference value :  2.61035e-04
 Reference value :  2.61044e-04
 Reference value :  2.61082e-04
 Reference value :  2.61245e-04
 Reference value :  2.61250e-04
 Reference value :  2.61250e-04
 Reference value :  2.61252e-04
 Reference value :  2.61253e-04
 Reference value :  2.61254e-04
 Reference value :  2.61258e-04
 Reference value :  2.61310e-04
 Reference value :  2.61500e-04
 Reference value :  2.61500e-04
 Reference value :  2.61501e-04
 Reference value :  2.61503e-04
 Reference value :  2.61504e-04
 Reference value :  2.61506e-04
 Reference value :  2.61509e-04
 Reference value :  2.61512e-04
 Reference value :  2.61541e-04
 Reference value :  2.61750e-04
 Reference value :  2.61750e-04
 Reference value :  2.61750e-04
 Reference value :  2.61752e-04
 Reference value :  2.61753e-04
 Reference value :  2.61754e-04
 Reference value :  2.61756e-04
 Reference value :  2.61759e-04
 Reference value :  2.61768e-04
 Reference value :  2.61836e-04
 Reference value :  2.62000e-04
 Reference value :  2.62000e-04
 Reference value :  2.62001e-04
 Reference value :  2.62001e-04
 Reference value :  2.62002e-04
 Reference value :  2.62003e-04
 Reference value :  2.62005e-04
 Reference value :  2.62006e-04
 Reference value :  2.62006e-04
 Reference value :  2.62008e-04
 Reference value :  2.62010e-04
 Reference value :  2.62012e-04
 Reference value :  2.62014e-04
 Reference value :  2.62015e-04
 Reference value :  2.62018e-04
 Reference value :  2.62023e-04
 Reference value :  2.62050e-04
 Reference value :  2.62250e-04
 Reference value :  2.62250e-04
 Reference value :  2.62250e-04
 Reference value :  2.62252e-04
 Reference value :  2.62253e-04
 Reference value :  2.62254e-04
 Reference value :  2.62258e-04
 Reference value :  2.62272e-04
 Reference value :  2.62465e-04
 Reference value :  2.62500e-04
 Reference value :  2.62500e-04
 Reference value :  2.62500e-04
 Reference value :  2.62501e-04
 Reference value :  2.62502e-04
 Reference value :  2.62503e-04
 Reference value :  2.62504e-04
 Reference value :  2.62506e-04
 Reference value :  2.62509e-04
 Reference value :  2.62512e-04
 Reference value :  2.62541e-04
 Reference value :  2.62750e-04
 Reference value :  2.62750e-04
 Reference value :  2.62750e-04
 Reference value :  2.62751e-04
 Reference value :  2.62752e-04
 Reference value :  2.62753e-04
 Reference value :  2.62754e-04
 Reference value :  2.62755e-04
 Reference value :  2.62756e-04
 Reference value :  2.62758e-04
 Reference value :  2.62762e-04
 Reference value :  2.62774e-04
 Reference value :  2.62835e-04
 Reference value :  2.63000e-04
 Reference value :  2.63000e-04
 Reference value :  2.63000e-04
 Reference value :  2.63000e-04
 Reference value :  2.63000e-04
 Reference value :  2.63000e-04
 Reference value :  2.63000e-04
 Reference value :  2.63001e-04
 Reference value :  2.63003e-04
 Reference value :  2.63005e-04
 Reference value :  2.63008e-04
 Reference value :  2.63010e-04
 Reference value :  2.63012e-04
 Reference value :  2.63014e-04
 Reference value :  2.63016e-04
 Reference value :  2.63025e-04
 Reference value :  2.63045e-04
 Reference value :  2.63064e-04
 Reference value :  2.63111e-04
 Reference value :  2.63250e-04
 Reference value :  2.63250e-04
 Reference value :  2.63250e-04
 Reference value :  2.63251e-04
 Reference value :  2.63252e-04
 Reference value :  2.63254e-04
 Reference value :  2.63258e-04
 Reference value :  2.63289e-04
 Reference value :  2.63500e-04
 Reference value :  2.63500e-04
 Reference value :  2.63500e-04
 Reference value :  2.63501e-04
 Reference value :  2.63503e-04
 Reference value :  2.63504e-04
 Reference value :  2.63505e-04
 Reference value :  2.63508e-04
 Reference value :  2.63524e-04
 Reference value :  2.63529e-04
 Reference value :  2.63533e-04
 Reference value :  2.63540e-04
 Reference value :  2.63548e-04
 Reference value :  2.63564e-04
 Reference value :  2.63578e-04
 Reference value :  2.63590e-04
 Reference value :  2.63618e-04
 Reference value :  2.63695e-04
 Reference value :  2.63750e-04
 Reference value :  2.63750e-04
 Reference value :  2.63750e-04
 Reference value :  2.63751e-04
 Reference value :  2.63752e-04
 Reference value :  2.63754e-04
 Reference value :  2.63756e-04
 Reference value :  2.63772e-04
 Reference value :  2.64000e-04
 Reference value :  2.64000e-04
 Reference value :  2.64000e-04
 Reference value :  2.64001e-04
 Reference value :  2.64002e-04
 Reference value :  2.64003e-04
 Reference value :  2.64005e-04
 Reference value :  2.64009e-04
 Reference value :  2.64011e-04
 Reference value :  2.64013e-04
 Reference value :  2.64018e-04
 Reference value :  2.64033e-04
 Reference value :  2.64120e-04
 Reference value :  2.64250e-04
 Reference value :  2.64250e-04
 Reference value :  2.64250e-04
 Reference value :  2.64251e-04
 Reference value :  2.64252e-04
 Reference value :  2.64253e-04
 Reference value :  2.64254e-04
 Reference value :  2.64255e-04
 Reference value :  2.64256e-04
 Reference value :  2.64258e-04
 Reference value :  2.64261e-04
 Reference value :  2.64270e-04
 Reference value :  2.64299e-04
 Reference value :  2.64393e-04
 Reference value :  2.64500e-04
 Reference value :  2.64500e-04
 Reference value :  2.64500e-04
 Reference value :  2.64501e-04
 Reference value :  2.64501e-04
 Reference value :  2.64502e-04
 Reference value :  2.64504e-04
 Reference value :  2.64506e-04
 Reference value :  2.64508e-04
 Reference value :  2.64510e-04
 Reference value :  2.64513e-04
 Reference value :  2.64514e-04
 Reference value :  2.64516e-04
 Reference value :  2.64519e-04
 Reference value :  2.64523e-04
 Reference value :  2.64541e-04
 Reference value :  2.64750e-04
 Reference value :  2.64750e-04
 Reference value :  2.64750e-04
 Reference value :  2.64752e-04
 Reference value :  2.64754e-04
 Reference value :  2.64755e-04
 Reference value :  2.64760e-04
 Reference value :  2.64810e-04
 Reference value :  2.65000e-04
 Reference value :  2.65000e-04
 Reference value :  2.65001e-04
 Reference value :  2.65003e-04
 Reference value :  2.65004e-04
 Reference value :  2.65006e-04
 Reference value :  2.65009e-04
 Reference value :  2.65019e-04
 Reference value :  2.65250e-04
 Reference value :  2.65250e-04
 Reference value :  2.65251e-04
 Reference value :  2.65253e-04
 Reference value :  2.65254e-04
 Reference value :  2.65256e-04
 Reference value :  2.65262e-04
 Reference value :  2.65404e-04
 Reference value :  2.65500e-04
 Reference value :  2.65501e-04
 Reference value :  2.65502e-04
 Reference value :  2.65504e-04
 Reference value :  2.65506e-04
 Reference value :  2.65509e-04
 Reference value :  2.65512e-04
 Reference value :  2.65514e-04
 Reference value :  2.65517e-04
 Reference value :  2.65526e-04
 Reference value :  2.65677e-04
 Reference value :  2.65750e-04
 Reference value :  2.65751e-04
 Reference value :  2.65753e-04
 Reference value :  2.65754e-04
 Reference value :  2.65758e-04
 Reference value :  2.65810e-04
 Reference value :  2.66000e-04
 Reference value :  2.66000e-04
 Reference value :  2.66001e-04
 Reference value :  2.66003e-04
 Reference value :  2.66006e-04
 Reference value :  2.66008e-04
 Reference value :  2.66012e-04
 Reference value :  2.66126e-04
 Reference value :  2.66250e-04
 Reference value :  2.66251e-04
 Reference value :  2.66253e-04
 Reference value :  2.66254e-04
 Reference value :  2.66256e-04
 Reference value :  2.66262e-04
 Reference value :  2.66405e-04
 Reference value :  2.66500e-04
 Reference value :  2.66501e-04
 Reference value :  2.66502e-04
 Reference value :  2.66504e-04
 Reference value :  2.66506e-04
 Reference value :  2.66508e-04
 Reference value :  2.66511e-04
 Reference value :  2.66514e-04
 Reference value :  2.66516e-04
 Reference value :  2.66521e-04
 Reference value :  2.66554e-04
 Reference value :  2.66638e-04
 Reference value :  2.66669e-04
 Reference value :  2.66692e-04
 Reference value :  2.66750e-04
 Reference value :  2.66750e-04
 Reference value :  2.66752e-04
 Reference value :  2.66754e-04
 Reference value :  2.66756e-04
 Reference value :  2.66785e-04
 Reference value :  2.67000e-04
 Reference value :  2.67000e-04
 Reference value :  2.67001e-04
 Reference value :  2.67003e-04
 Reference value :  2.67006e-04
 Reference value :  2.67008e-04
 Reference value :  2.67012e-04
 Reference value :  2.67250e-04
 Reference value :  2.67250e-04
 Reference value :  2.67251e-04
 Reference value :  2.67253e-04
 Reference value :  2.67255e-04
 Reference value :  2.67259e-04
 Reference value :  2.67347e-04
 Reference value :  2.67500e-04
 Reference value :  2.67501e-04
 Reference value :  2.67502e-04
 Reference value :  2.67503e-04
 Reference value :  2.67505e-04
 Reference value :  2.67510e-04
 Reference value :  2.67515e-04
 Reference value :  2.67518e-04
 Reference value :  2.67524e-04
 Reference value :  2.67545e-04
 Reference value :  2.67558e-04
 Reference value :  2.67589e-04
 Reference value :  2.67750e-04
 Reference value :  2.67750e-04
 Reference value :  2.67752e-04
 Reference value :  2.67753e-04
 Reference value :  2.67756e-04
 Reference value :  2.67773e-04
 Reference value :  2.68000e-04
 Reference value :  2.68000e-04
 Reference value :  2.68001e-04
 Reference value :  2.68003e-04
 Reference value :  2.68004e-04
 Reference value :  2.68006e-04
 Reference value :  2.68010e-04
 Reference value :  2.68040e-04
 Reference value :  2.68250e-04
 Reference value :  2.68250e-04
 Reference value :  2.68252e-04
 Reference value :  2.68253e-04
 Reference value :  2.68255e-04
 Reference value :  2.68258e-04
 Reference value :  2.68268e-04
 Reference value :  2.68500e-04
 Reference value :  2.68500e-04
 Reference value :  2.68501e-04
 Reference value :  2.68502e-04
 Reference value :  2.68504e-04
 Reference value :  2.68506e-04
 Reference value :  2.68509e-04
 Reference value :  2.68512e-04
 Reference value :  2.68514e-04
 Reference value :  2.68517e-04
 Reference value :  2.68525e-04
 Reference value :  2.68567e-04
 Reference value :  2.68674e-04
 Reference value :  2.68750e-04
 Reference value :  2.68750e-04
 Reference value :  2.68752e-04
 Reference value :  2.68754e-04
 Reference value :  2.68756e-04
 Reference value :  2.68766e-04
 Reference value :  2.68964e-04
 Reference value :  2.69000e-04
 Reference value :  2.69000e-04
 Reference value :  2.69001e-04
 Reference value :  2.69003e-04
 Reference value :  2.69004e-04
 Reference value :  2.69006e-04
 Reference value :  2.69010e-04
 Reference value :  2.69041e-04
 Reference value :  2.69250e-04
 Reference value :  2.69250e-04
 Reference value :  2.69252e-04
 Reference value :  2.69254e-04
 Reference value :  2.69256e-04
 Reference value :  2.69262e-04
 Reference value :  2.69405e-04
 Reference value :  2.69500e-04
 Reference value :  2.69501e-04
 Reference value :  2.69502e-04
 Reference value :  2.69504e-04
 Reference value :  2.69506e-04
 Reference value :  2.69509e-04
 Reference value :  2.69512e-04
 Reference value :  2.69515e-04
 Reference value :  2.69519e-04
 Reference value :  2.69535e-04
 Reference value :  2.69613e-04
 Reference value :  2.69750e-04
 Reference value :  2.69751e-04
 Reference value :  2.69753e-04
 Reference value :  2.69755e-04
 Reference value :  2.69762e-04
 Reference value :  2.69965e-04
 Reference value :  2.70000e-04
 Reference value :  2.70001e-04
 Reference value :  2.70003e-04
 Reference value :  2.70005e-04
 Reference value :  2.70008e-04
 Reference value :  2.70019e-04
 Reference value :  2.70250e-04
 Reference value :  2.70250e-04
 Reference value :  2.70252e-04
 Reference value :  2.70254e-04
 Reference value :  2.70256e-04
 Reference value :  2.70262e-04
 Reference value :  2.70405e-04
 Reference value :  2.70500e-04
 Reference value :  2.70501e-04
 Reference value :  2.70503e-04
 Reference value :  2.70505e-04
 Reference value :  2.70507e-04
 Reference value :  2.70510e-04
 Reference value :  2.70513e-04
 Reference value :  2.70515e-04
 Reference value :  2.70519e-04
 Reference value :  2.70549e-04
 Reference value :  2.70750e-04
 Reference value :  2.70750e-04
 Reference value :  2.70752e-04
 Reference value :  2.70754e-04
 Reference value :  2.70756e-04
 Reference value :  2.70785e-04
 Reference value :  2.71000e-04
 Reference value :  2.71000e-04
 Reference value :  2.71001e-04
 Reference value :  2.71003e-04
 Reference value :  2.71006e-04
 Reference value :  2.71011e-04
 Reference value :  2.71069e-04
 Reference value :  2.71250e-04
 Reference value :  2.71250e-04
 Reference value :  2.71252e-04
 Reference value :  2.71254e-04
 Reference value :  2.71256e-04
 Reference value :  2.71262e-04
 Reference value :  2.71402e-04
 Reference value :  2.71500e-04
 Reference value :  2.71501e-04
 Reference value :  2.71502e-04
 Reference value :  2.71504e-04
 Reference value :  2.71505e-04
 Reference value :  2.71508e-04
 Reference value :  2.71511e-04
 Reference value :  2.71517e-04
 Reference value :  2.71561e-04
 Reference value :  2.71744e-04
 Reference value :  2.71750e-04
 Reference value :  2.71751e-04
 Reference value :  2.71753e-04
 Reference value :  2.71758e-04
 Reference value :  2.71772e-04
 Reference value :  2.71899e-04
No. of Data Rows : 39564
ngspice-44 done
