
Note: Compatibility modes selected: hs a


Circuit: ** sch_path: /home/ece/cace/sar-adc-using-sky130-pdk/runs/run_2025-09-12_01-08-42/parameters/dnl/run_0/sar_output_dnl.sch

option SCALE: Scale is set to 1e-06 for instance and model parameters
option SCALE: Scale is set to 1e-06 for instance and model parameters
option SCALE: Scale is set to 1e-06 for instance and model parameters
option SCALE: Scale is set to 1e-06 for instance and model parameters
Doing analysis at TEMP = 27.000000 and TNOM = 27.000000

Using KLU as Direct Linear Solver
Operating point simulation skipped by 'uic',
  now using transient initial conditions.
 Reference value :  1.00000e-12
 Reference value :  1.02772e-12
 Reference value :  1.08316e-12
 Reference value :  1.19404e-12
 Reference value :  1.33849e-12
 Reference value :  1.62739e-12
 Reference value :  2.20519e-12
 Reference value :  3.06301e-12
 Reference value :  3.96355e-12
 Reference value :  5.17254e-12
 Reference value :  6.88196e-12
 Reference value :  1.00179e-11
 Reference value :  1.36693e-11
 Reference value :  2.03111e-11
 Reference value :  2.72260e-11
 Reference value :  3.60946e-11
 Reference value :  4.70034e-11
 Reference value :  6.49422e-11
 Reference value :  8.48330e-11
 Reference value :  1.00000e-10
 Reference value :  1.01276e-10
 Reference value :  1.03828e-10
 Reference value :  1.08933e-10
 Reference value :  1.19141e-10
 Reference value :  1.39559e-10
 Reference value :  1.80394e-10
 Reference value :  2.62064e-10
 Reference value :  4.13748e-10
 Reference value :  5.81010e-10
 Reference value :  8.51040e-10
 Reference value :  1.22139e-09
 Reference value :  1.67936e-09
 Reference value :  2.41787e-09
 Reference value :  3.13732e-09
 Reference value :  3.78255e-09
 Reference value :  4.57168e-09
 Reference value :  5.40847e-09
 Reference value :  6.33553e-09
 Reference value :  7.59449e-09
 Reference value :  8.91184e-09
 Reference value :  1.00011e-08
 Reference value :  1.09696e-08
 Reference value :  1.18508e-08
 Reference value :  1.27715e-08
 Reference value :  1.42008e-08
 Reference value :  1.60293e-08
 Reference value :  1.91077e-08
 Reference value :  2.23235e-08
 Reference value :  2.54038e-08
 Reference value :  2.80305e-08
 Reference value :  3.09436e-08
 Reference value :  3.38587e-08
 Reference value :  3.68992e-08
 Reference value :  4.16478e-08
 Reference value :  4.84016e-08
 Reference value :  6.04574e-08
 Reference value :  8.18466e-08
 Reference value :  1.18319e-07
 Reference value :  1.78552e-07
 Reference value :  2.50100e-07
 Reference value :  2.50110e-07
 Reference value :  2.50130e-07
 Reference value :  2.50170e-07
 Reference value :  2.50200e-07
 Reference value :  2.50201e-07
 Reference value :  2.50202e-07
 Reference value :  2.50204e-07
 Reference value :  2.50208e-07
 Reference value :  2.50216e-07
 Reference value :  2.50233e-07
 Reference value :  2.50267e-07
 Reference value :  2.50335e-07
 Reference value :  2.50412e-07
 Reference value :  2.50567e-07
 Reference value :  2.50716e-07
 Reference value :  2.51014e-07
 Reference value :  2.51339e-07
 Reference value :  2.51860e-07
 Reference value :  2.52428e-07
 Reference value :  2.53220e-07
 Reference value :  2.54044e-07
 Reference value :  2.55121e-07
 Reference value :  2.55873e-07
 Reference value :  2.56730e-07
 Reference value :  2.57736e-07
 Reference value :  2.58844e-07
 Reference value :  2.60168e-07
 Reference value :  2.62406e-07
 Reference value :  2.64460e-07
 Reference value :  2.68056e-07
 Reference value :  2.72813e-07
 Reference value :  2.82327e-07
 Reference value :  2.98833e-07
 Reference value :  3.27059e-07
 Reference value :  3.83510e-07
 Reference value :  4.96412e-07
 Reference value :  5.00000e-07
 Reference value :  5.00010e-07
 Reference value :  5.00030e-07
 Reference value :  5.00070e-07
 Reference value :  5.00100e-07
 Reference value :  5.00104e-07
 Reference value :  5.00112e-07
 Reference value :  5.00129e-07
 Reference value :  5.00162e-07
 Reference value :  5.00229e-07
 Reference value :  5.00362e-07
 Reference value :  5.00537e-07
 Reference value :  5.00888e-07
 Reference value :  5.01502e-07
 Reference value :  5.02193e-07
 Reference value :  5.02817e-07
 Reference value :  5.03504e-07
 Reference value :  5.04212e-07
 Reference value :  5.05148e-07
 Reference value :  5.06118e-07
 Reference value :  5.07100e-07
 Reference value :  5.08379e-07
 Reference value :  5.09807e-07
 Reference value :  5.11739e-07
 Reference value :  5.14069e-07
 Reference value :  5.15916e-07
 Reference value :  5.17905e-07
 Reference value :  5.19991e-07
 Reference value :  5.22394e-07
 Reference value :  5.25104e-07
 Reference value :  5.27935e-07
 Reference value :  5.33189e-07
 Reference value :  5.41575e-07
 Reference value :  5.51296e-07
 Reference value :  5.70739e-07
 Reference value :  6.09623e-07
 Reference value :  6.73425e-07
 Reference value :  7.50100e-07
 Reference value :  7.50110e-07
 Reference value :  7.50130e-07
 Reference value :  7.50170e-07
 Reference value :  7.50200e-07
 Reference value :  7.50201e-07
 Reference value :  7.50202e-07
 Reference value :  7.50205e-07
 Reference value :  7.50211e-07
 Reference value :  7.50224e-07
 Reference value :  7.50248e-07
 Reference value :  7.50297e-07
 Reference value :  7.50395e-07
 Reference value :  7.50590e-07
 Reference value :  7.50977e-07
 Reference value :  7.51389e-07
 Reference value :  7.51911e-07
 Reference value :  7.52518e-07
 Reference value :  7.53316e-07
 Reference value :  7.54225e-07
 Reference value :  7.55414e-07
 Reference value :  7.56519e-07
 Reference value :  7.57522e-07
 Reference value :  7.58609e-07
 Reference value :  7.59815e-07
 Reference value :  7.61113e-07
 Reference value :  7.63557e-07
 Reference value :  7.66725e-07
 Reference value :  7.72290e-07
 Reference value :  7.83420e-07
 Reference value :  8.03446e-07
 Reference value :  8.42148e-07
 Reference value :  9.15408e-07
 Reference value :  1.00000e-06
 Reference value :  1.00001e-06
 Reference value :  1.00003e-06
 Reference value :  1.00007e-06
 Reference value :  1.00010e-06
 Reference value :  1.00010e-06
 Reference value :  1.00011e-06
 Reference value :  1.00013e-06
 Reference value :  1.00016e-06
 Reference value :  1.00023e-06
 Reference value :  1.00036e-06
 Reference value :  1.00054e-06
 Reference value :  1.00089e-06
 Reference value :  1.00151e-06
 Reference value :  1.00220e-06
 Reference value :  1.00282e-06
 Reference value :  1.00346e-06
 Reference value :  1.00415e-06
 Reference value :  1.00499e-06
 Reference value :  1.00587e-06
 Reference value :  1.00672e-06
 Reference value :  1.00777e-06
 Reference value :  1.00888e-06
 Reference value :  1.00997e-06
 Reference value :  1.01100e-06
 Reference value :  1.01243e-06
 Reference value :  1.01413e-06
 Reference value :  1.01684e-06
 Reference value :  1.01885e-06
 Reference value :  1.02101e-06
 Reference value :  1.02262e-06
 Reference value :  1.02414e-06
 Reference value :  1.02558e-06
 Reference value :  1.02714e-06
 Reference value :  1.02887e-06
 Reference value :  1.03113e-06
 Reference value :  1.03350e-06
 Reference value :  1.03815e-06
 Reference value :  1.04458e-06
 Reference value :  1.05583e-06
 Reference value :  1.07396e-06
 Reference value :  1.09398e-06
 Reference value :  1.10749e-06
 Reference value :  1.11834e-06
 Reference value :  1.12907e-06
 Reference value :  1.13556e-06
 Reference value :  1.14397e-06
 Reference value :  1.15176e-06
 Reference value :  1.16716e-06
 Reference value :  1.18333e-06
 Reference value :  1.20858e-06
 Reference value :  1.24849e-06
 Reference value :  1.25010e-06
 Reference value :  1.25011e-06
 Reference value :  1.25013e-06
 Reference value :  1.25017e-06
 Reference value :  1.25020e-06
 Reference value :  1.25020e-06
 Reference value :  1.25020e-06
 Reference value :  1.25021e-06
 Reference value :  1.25021e-06
 Reference value :  1.25022e-06
 Reference value :  1.25025e-06
 Reference value :  1.25029e-06
 Reference value :  1.25039e-06
 Reference value :  1.25058e-06
 Reference value :  1.25092e-06
 Reference value :  1.25135e-06
 Reference value :  1.25187e-06
 Reference value :  1.25248e-06
 Reference value :  1.25324e-06
 Reference value :  1.25412e-06
 Reference value :  1.25525e-06
 Reference value :  1.25617e-06
 Reference value :  1.25713e-06
 Reference value :  1.25821e-06
 Reference value :  1.25978e-06
 Reference value :  1.26132e-06
 Reference value :  1.26379e-06
 Reference value :  1.26680e-06
 Reference value :  1.27216e-06
 Reference value :  1.28289e-06
 Reference value :  1.30219e-06
 Reference value :  1.34023e-06
 Reference value :  1.41243e-06
 Reference value :  1.50000e-06
 Reference value :  1.50001e-06
 Reference value :  1.50003e-06
 Reference value :  1.50007e-06
 Reference value :  1.50010e-06
 Reference value :  1.50010e-06
 Reference value :  1.50011e-06
 Reference value :  1.50013e-06
 Reference value :  1.50016e-06
 Reference value :  1.50023e-06
 Reference value :  1.50036e-06
 Reference value :  1.50053e-06
 Reference value :  1.50087e-06
 Reference value :  1.50145e-06
 Reference value :  1.50221e-06
 Reference value :  1.50284e-06
 Reference value :  1.50350e-06
 Reference value :  1.50419e-06
 Reference value :  1.50515e-06
 Reference value :  1.50612e-06
 Reference value :  1.50707e-06
 Reference value :  1.50855e-06
 Reference value :  1.50991e-06
 Reference value :  1.51129e-06
 Reference value :  1.51286e-06
 Reference value :  1.51460e-06
 Reference value :  1.51630e-06
 Reference value :  1.51815e-06
 Reference value :  1.52049e-06
 Reference value :  1.52379e-06
 Reference value :  1.52932e-06
 Reference value :  1.53861e-06
 Reference value :  1.55573e-06
 Reference value :  1.58731e-06
 Reference value :  1.64652e-06
 Reference value :  1.75010e-06
 Reference value :  1.75011e-06
 Reference value :  1.75013e-06
 Reference value :  1.75017e-06
 Reference value :  1.75020e-06
 Reference value :  1.75020e-06
 Reference value :  1.75020e-06
 Reference value :  1.75021e-06
 Reference value :  1.75021e-06
 Reference value :  1.75022e-06
 Reference value :  1.75025e-06
 Reference value :  1.75030e-06
 Reference value :  1.75039e-06
 Reference value :  1.75059e-06
 Reference value :  1.75094e-06
 Reference value :  1.75136e-06
 Reference value :  1.75188e-06
 Reference value :  1.75249e-06
 Reference value :  1.75326e-06
 Reference value :  1.75413e-06
 Reference value :  1.75531e-06
 Reference value :  1.75623e-06
 Reference value :  1.75720e-06
 Reference value :  1.75823e-06
 Reference value :  1.75934e-06
 Reference value :  1.76057e-06
 Reference value :  1.76184e-06
 Reference value :  1.76324e-06
 Reference value :  1.76537e-06
 Reference value :  1.76770e-06
 Reference value :  1.77129e-06
 Reference value :  1.77696e-06
 Reference value :  1.78830e-06
 Reference value :  1.81098e-06
 Reference value :  1.85634e-06
 Reference value :  1.94707e-06
 Reference value :  2.00000e-06
 Reference value :  2.00001e-06
 Reference value :  2.00003e-06
 Reference value :  2.00007e-06
 Reference value :  2.00010e-06
 Reference value :  2.00010e-06
 Reference value :  2.00011e-06
 Reference value :  2.00013e-06
 Reference value :  2.00016e-06
 Reference value :  2.00023e-06
 Reference value :  2.00036e-06
 Reference value :  2.00053e-06
 Reference value :  2.00087e-06
 Reference value :  2.00144e-06
 Reference value :  2.00221e-06
 Reference value :  2.00288e-06
 Reference value :  2.00356e-06
 Reference value :  2.00427e-06
 Reference value :  2.00514e-06
 Reference value :  2.00590e-06
 Reference value :  2.00673e-06
 Reference value :  2.00781e-06
 Reference value :  2.00879e-06
 Reference value :  2.00973e-06
 Reference value :  2.01077e-06
 Reference value :  2.01213e-06
 Reference value :  2.01366e-06
 Reference value :  2.01583e-06
 Reference value :  2.01736e-06
 Reference value :  2.01906e-06
 Reference value :  2.02082e-06
 Reference value :  2.02217e-06
 Reference value :  2.02347e-06
 Reference value :  2.02487e-06
 Reference value :  2.02632e-06
 Reference value :  2.02800e-06
 Reference value :  2.02970e-06
 Reference value :  2.03254e-06
 Reference value :  2.03517e-06
 Reference value :  2.04041e-06
 Reference value :  2.04989e-06
 Reference value :  2.06392e-06
 Reference value :  2.09198e-06
 Reference value :  2.12048e-06
 Reference value :  2.14774e-06
 Reference value :  2.16655e-06
 Reference value :  2.18447e-06
 Reference value :  2.20267e-06
 Reference value :  2.22014e-06
 Reference value :  2.25010e-06
 Reference value :  2.25011e-06
 Reference value :  2.25013e-06
 Reference value :  2.25017e-06
 Reference value :  2.25020e-06
 Reference value :  2.25020e-06
 Reference value :  2.25020e-06
 Reference value :  2.25021e-06
 Reference value :  2.25021e-06
 Reference value :  2.25022e-06
 Reference value :  2.25025e-06
 Reference value :  2.25030e-06
 Reference value :  2.25039e-06
 Reference value :  2.25059e-06
 Reference value :  2.25094e-06
 Reference value :  2.25136e-06
 Reference value :  2.25188e-06
 Reference value :  2.25249e-06
 Reference value :  2.25326e-06
 Reference value :  2.25413e-06
 Reference value :  2.25532e-06
 Reference value :  2.25623e-06
 Reference value :  2.25718e-06
 Reference value :  2.25826e-06
 Reference value :  2.25982e-06
 Reference value :  2.26129e-06
 Reference value :  2.26379e-06
 Reference value :  2.26680e-06
 Reference value :  2.27233e-06
 Reference value :  2.28339e-06
 Reference value :  2.30275e-06
 Reference value :  2.34147e-06
 Reference value :  2.41389e-06
 Reference value :  2.47081e-06
 Reference value :  2.50000e-06
 Reference value :  2.50001e-06
 Reference value :  2.50003e-06
 Reference value :  2.50007e-06
 Reference value :  2.50010e-06
 Reference value :  2.50010e-06
 Reference value :  2.50011e-06
 Reference value :  2.50013e-06
 Reference value :  2.50016e-06
 Reference value :  2.50023e-06
 Reference value :  2.50036e-06
 Reference value :  2.50053e-06
 Reference value :  2.50087e-06
 Reference value :  2.50144e-06
 Reference value :  2.50221e-06
 Reference value :  2.50284e-06
 Reference value :  2.50351e-06
 Reference value :  2.50420e-06
 Reference value :  2.50516e-06
 Reference value :  2.50613e-06
 Reference value :  2.50708e-06
 Reference value :  2.50856e-06
 Reference value :  2.50993e-06
 Reference value :  2.51129e-06
 Reference value :  2.51282e-06
 Reference value :  2.51463e-06
 Reference value :  2.51628e-06
 Reference value :  2.51823e-06
 Reference value :  2.52046e-06
 Reference value :  2.52429e-06
 Reference value :  2.53035e-06
 Reference value :  2.54123e-06
 Reference value :  2.56229e-06
 Reference value :  2.59523e-06
 Reference value :  2.63318e-06
 Reference value :  2.67000e-06
 Reference value :  2.70958e-06
 Reference value :  2.75010e-06
 Reference value :  2.75011e-06
 Reference value :  2.75013e-06
 Reference value :  2.75017e-06
 Reference value :  2.75020e-06
 Reference value :  2.75020e-06
 Reference value :  2.75020e-06
 Reference value :  2.75021e-06
 Reference value :  2.75021e-06
 Reference value :  2.75022e-06
 Reference value :  2.75025e-06
 Reference value :  2.75030e-06
 Reference value :  2.75039e-06
 Reference value :  2.75059e-06
 Reference value :  2.75094e-06
 Reference value :  2.75136e-06
 Reference value :  2.75188e-06
 Reference value :  2.75249e-06
 Reference value :  2.75325e-06
 Reference value :  2.75413e-06
 Reference value :  2.75532e-06
 Reference value :  2.75624e-06
 Reference value :  2.75720e-06
 Reference value :  2.75824e-06
 Reference value :  2.75936e-06
 Reference value :  2.76058e-06
 Reference value :  2.76186e-06
 Reference value :  2.76326e-06
 Reference value :  2.76541e-06
 Reference value :  2.76774e-06
 Reference value :  2.77132e-06
 Reference value :  2.77698e-06
 Reference value :  2.78829e-06
 Reference value :  2.81091e-06
 Reference value :  2.85616e-06
 Reference value :  2.94666e-06
 Reference value :  3.00000e-06
 Reference value :  3.00001e-06
 Reference value :  3.00003e-06
 Reference value :  3.00007e-06
 Reference value :  3.00010e-06
 Reference value :  3.00010e-06
 Reference value :  3.00011e-06
 Reference value :  3.00013e-06
 Reference value :  3.00016e-06
 Reference value :  3.00023e-06
 Reference value :  3.00036e-06
 Reference value :  3.00053e-06
 Reference value :  3.00087e-06
 Reference value :  3.00144e-06
 Reference value :  3.00221e-06
 Reference value :  3.00288e-06
 Reference value :  3.00356e-06
 Reference value :  3.00427e-06
 Reference value :  3.00513e-06
 Reference value :  3.00590e-06
 Reference value :  3.00673e-06
 Reference value :  3.00780e-06
 Reference value :  3.00879e-06
 Reference value :  3.00972e-06
 Reference value :  3.01075e-06
 Reference value :  3.01209e-06
 Reference value :  3.01365e-06
 Reference value :  3.01522e-06
 Reference value :  3.01693e-06
 Reference value :  3.01854e-06
 Reference value :  3.02024e-06
 Reference value :  3.02149e-06
 Reference value :  3.02267e-06
 Reference value :  3.02410e-06
 Reference value :  3.02557e-06
 Reference value :  3.02695e-06
 Reference value :  3.02868e-06
 Reference value :  3.03085e-06
 Reference value :  3.03321e-06
 Reference value :  3.03686e-06
 Reference value :  3.04019e-06
 Reference value :  3.04378e-06
 Reference value :  3.04632e-06
 Reference value :  3.04873e-06
 Reference value :  3.05059e-06
 Reference value :  3.05273e-06
 Reference value :  3.05615e-06
 Reference value :  3.06011e-06
 Reference value :  3.06649e-06
 Reference value :  3.07440e-06
 Reference value :  3.08761e-06
 Reference value :  3.10628e-06
 Reference value :  3.13506e-06
 Reference value :  3.16065e-06
 Reference value :  3.18893e-06
 Reference value :  3.22127e-06
 Reference value :  3.25010e-06
 Reference value :  3.25011e-06
 Reference value :  3.25013e-06
 Reference value :  3.25017e-06
 Reference value :  3.25020e-06
 Reference value :  3.25020e-06
 Reference value :  3.25020e-06
 Reference value :  3.25021e-06
 Reference value :  3.25021e-06
 Reference value :  3.25022e-06
 Reference value :  3.25025e-06
 Reference value :  3.25029e-06
 Reference value :  3.25039e-06
 Reference value :  3.25058e-06
 Reference value :  3.25092e-06
 Reference value :  3.25134e-06
 Reference value :  3.25187e-06
 Reference value :  3.25248e-06
 Reference value :  3.25323e-06
 Reference value :  3.25411e-06
 Reference value :  3.25530e-06
 Reference value :  3.25619e-06
 Reference value :  3.25713e-06
 Reference value :  3.25821e-06
 Reference value :  3.25976e-06
 Reference value :  3.26118e-06
 Reference value :  3.26374e-06
 Reference value :  3.26664e-06
 Reference value :  3.27209e-06
 Reference value :  3.28298e-06
 Reference value :  3.30220e-06
 Reference value :  3.34062e-06
 Reference value :  3.41360e-06
 Reference value :  3.50000e-06
 Reference value :  3.50001e-06
 Reference value :  3.50003e-06
 Reference value :  3.50007e-06
 Reference value :  3.50010e-06
 Reference value :  3.50010e-06
 Reference value :  3.50011e-06
 Reference value :  3.50013e-06
 Reference value :  3.50016e-06
 Reference value :  3.50023e-06
 Reference value :  3.50036e-06
 Reference value :  3.50053e-06
 Reference value :  3.50087e-06
 Reference value :  3.50145e-06
 Reference value :  3.50221e-06
 Reference value :  3.50288e-06
 Reference value :  3.50356e-06
 Reference value :  3.50426e-06
 Reference value :  3.50524e-06
 Reference value :  3.50619e-06
 Reference value :  3.50717e-06
 Reference value :  3.50861e-06
 Reference value :  3.51000e-06
 Reference value :  3.51128e-06
 Reference value :  3.51264e-06
 Reference value :  3.51417e-06
 Reference value :  3.51583e-06
 Reference value :  3.51764e-06
 Reference value :  3.51966e-06
 Reference value :  3.52354e-06
 Reference value :  3.52953e-06
 Reference value :  3.54151e-06
 Reference value :  3.56415e-06
 Reference value :  3.60479e-06
 Reference value :  3.68502e-06
 Reference value :  3.75010e-06
 Reference value :  3.75011e-06
 Reference value :  3.75013e-06
 Reference value :  3.75017e-06
 Reference value :  3.75020e-06
 Reference value :  3.75020e-06
 Reference value :  3.75020e-06
 Reference value :  3.75021e-06
 Reference value :  3.75021e-06
 Reference value :  3.75022e-06
 Reference value :  3.75025e-06
 Reference value :  3.75030e-06
 Reference value :  3.75039e-06
 Reference value :  3.75059e-06
 Reference value :  3.75094e-06
 Reference value :  3.75136e-06
 Reference value :  3.75188e-06
 Reference value :  3.75249e-06
 Reference value :  3.75325e-06
 Reference value :  3.75413e-06
 Reference value :  3.75531e-06
 Reference value :  3.75623e-06
 Reference value :  3.75719e-06
 Reference value :  3.75822e-06
 Reference value :  3.75933e-06
 Reference value :  3.76056e-06
 Reference value :  3.76300e-06
 Reference value :  3.76566e-06
 Reference value :  3.77032e-06
 Reference value :  3.77880e-06
 Reference value :  3.79575e-06
 Reference value :  3.82933e-06
 Reference value :  3.89436e-06
 Reference value :  4.00000e-06
 Reference value :  4.00001e-06
 Reference value :  4.00003e-06
 Reference value :  4.00007e-06
 Reference value :  4.00010e-06
 Reference value :  4.00010e-06
 Reference value :  4.00011e-06
 Reference value :  4.00013e-06
 Reference value :  4.00016e-06
 Reference value :  4.00023e-06
 Reference value :  4.00036e-06
 Reference value :  4.00053e-06
 Reference value :  4.00087e-06
 Reference value :  4.00145e-06
 Reference value :  4.00221e-06
 Reference value :  4.00288e-06
 Reference value :  4.00356e-06
 Reference value :  4.00427e-06
 Reference value :  4.00525e-06
 Reference value :  4.00603e-06
 Reference value :  4.00685e-06
 Reference value :  4.00785e-06
 Reference value :  4.00893e-06
 Reference value :  4.00993e-06
 Reference value :  4.01098e-06
 Reference value :  4.01233e-06
 Reference value :  4.01406e-06
 Reference value :  4.01669e-06
 Reference value :  4.01868e-06
 Reference value :  4.02081e-06
 Reference value :  4.02231e-06
 Reference value :  4.02380e-06
 Reference value :  4.02519e-06
 Reference value :  4.02677e-06
 Reference value :  4.02842e-06
 Reference value :  4.03064e-06
 Reference value :  4.03289e-06
 Reference value :  4.03740e-06
 Reference value :  4.04396e-06
 Reference value :  4.05539e-06
 Reference value :  4.07151e-06
 Reference value :  4.10376e-06
 Reference value :  4.13490e-06
 Reference value :  4.16870e-06
 Reference value :  4.19953e-06
 Reference value :  4.23887e-06
 Reference value :  4.25010e-06
 Reference value :  4.25011e-06
 Reference value :  4.25013e-06
 Reference value :  4.25017e-06
 Reference value :  4.25020e-06
 Reference value :  4.25020e-06
 Reference value :  4.25020e-06
 Reference value :  4.25021e-06
 Reference value :  4.25021e-06
 Reference value :  4.25022e-06
 Reference value :  4.25025e-06
 Reference value :  4.25029e-06
 Reference value :  4.25039e-06
 Reference value :  4.25058e-06
 Reference value :  4.25092e-06
 Reference value :  4.25134e-06
 Reference value :  4.25187e-06
 Reference value :  4.25248e-06
 Reference value :  4.25323e-06
 Reference value :  4.25411e-06
 Reference value :  4.25530e-06
 Reference value :  4.25620e-06
 Reference value :  4.25714e-06
 Reference value :  4.25821e-06
 Reference value :  4.25962e-06
 Reference value :  4.26107e-06
 Reference value :  4.26353e-06
 Reference value :  4.26643e-06
 Reference value :  4.27145e-06
 Reference value :  4.28151e-06
 Reference value :  4.30029e-06
 Reference value :  4.33667e-06
 Reference value :  4.40815e-06
 Reference value :  4.50000e-06
 Reference value :  4.50001e-06
 Reference value :  4.50003e-06
 Reference value :  4.50007e-06
 Reference value :  4.50010e-06
 Reference value :  4.50010e-06
 Reference value :  4.50011e-06
 Reference value :  4.50013e-06
 Reference value :  4.50016e-06
 Reference value :  4.50023e-06
 Reference value :  4.50036e-06
 Reference value :  4.50053e-06
 Reference value :  4.50087e-06
 Reference value :  4.50145e-06
 Reference value :  4.50221e-06
 Reference value :  4.50288e-06
 Reference value :  4.50355e-06
 Reference value :  4.50426e-06
 Reference value :  4.50524e-06
 Reference value :  4.50619e-06
 Reference value :  4.50716e-06
 Reference value :  4.50861e-06
 Reference value :  4.50999e-06
 Reference value :  4.51124e-06
 Reference value :  4.51251e-06
 Reference value :  4.51379e-06
 Reference value :  4.51531e-06
 Reference value :  4.51695e-06
 Reference value :  4.51869e-06
 Reference value :  4.52215e-06
 Reference value :  4.52907e-06
 Reference value :  4.54075e-06
 Reference value :  4.56410e-06
 Reference value :  4.60789e-06
 Reference value :  4.68970e-06
 Reference value :  4.75010e-06
 Reference value :  4.75011e-06
 Reference value :  4.75013e-06
 Reference value :  4.75017e-06
 Reference value :  4.75020e-06
 Reference value :  4.75020e-06
 Reference value :  4.75020e-06
 Reference value :  4.75021e-06
 Reference value :  4.75021e-06
 Reference value :  4.75022e-06
 Reference value :  4.75025e-06
 Reference value :  4.75030e-06
 Reference value :  4.75039e-06
 Reference value :  4.75059e-06
 Reference value :  4.75093e-06
 Reference value :  4.75136e-06
 Reference value :  4.75188e-06
 Reference value :  4.75249e-06
 Reference value :  4.75325e-06
 Reference value :  4.75413e-06
 Reference value :  4.75531e-06
 Reference value :  4.75623e-06
 Reference value :  4.75719e-06
 Reference value :  4.75822e-06
 Reference value :  4.75933e-06
 Reference value :  4.76056e-06
 Reference value :  4.76299e-06
 Reference value :  4.76566e-06
 Reference value :  4.77031e-06
 Reference value :  4.77880e-06
 Reference value :  4.79576e-06
 Reference value :  4.82916e-06
 Reference value :  4.89466e-06
 Reference value :  5.00000e-06
 Reference value :  5.00001e-06
 Reference value :  5.00003e-06
 Reference value :  5.00007e-06
 Reference value :  5.00010e-06
 Reference value :  5.00010e-06
 Reference value :  5.00011e-06
 Reference value :  5.00013e-06
 Reference value :  5.00016e-06
 Reference value :  5.00023e-06
 Reference value :  5.00036e-06
 Reference value :  5.00053e-06
 Reference value :  5.00087e-06
 Reference value :  5.00145e-06
 Reference value :  5.00221e-06
 Reference value :  5.00288e-06
 Reference value :  5.00356e-06
 Reference value :  5.00427e-06
 Reference value :  5.00525e-06
 Reference value :  5.00603e-06
 Reference value :  5.00686e-06
 Reference value :  5.00785e-06
 Reference value :  5.00873e-06
 Reference value :  5.00970e-06
 Reference value :  5.01067e-06
 Reference value :  5.01191e-06
 Reference value :  5.01363e-06
 Reference value :  5.01583e-06
 Reference value :  5.01810e-06
 Reference value :  5.02039e-06
 Reference value :  5.02206e-06
 Reference value :  5.02362e-06
 Reference value :  5.02524e-06
 Reference value :  5.02694e-06
 Reference value :  5.02898e-06
 Reference value :  5.03086e-06
 Reference value :  5.03363e-06
 Reference value :  5.03790e-06
 Reference value :  5.04396e-06
 Reference value :  5.05170e-06
 Reference value :  5.05882e-06
 Reference value :  5.06710e-06
 Reference value :  5.07489e-06
 Reference value :  5.08287e-06
 Reference value :  5.09004e-06
 Reference value :  5.09715e-06
 Reference value :  5.10318e-06
 Reference value :  5.11096e-06
 Reference value :  5.12592e-06
 Reference value :  5.14794e-06
 Reference value :  5.19199e-06
 Reference value :  5.23708e-06
 Reference value :  5.25010e-06
 Reference value :  5.25011e-06
 Reference value :  5.25013e-06
 Reference value :  5.25017e-06
 Reference value :  5.25020e-06
 Reference value :  5.25020e-06
 Reference value :  5.25020e-06
 Reference value :  5.25021e-06
 Reference value :  5.25021e-06
 Reference value :  5.25022e-06
 Reference value :  5.25025e-06
 Reference value :  5.25029e-06
 Reference value :  5.25039e-06
 Reference value :  5.25058e-06
 Reference value :  5.25092e-06
 Reference value :  5.25135e-06
 Reference value :  5.25187e-06
 Reference value :  5.25248e-06
 Reference value :  5.25324e-06
 Reference value :  5.25411e-06
 Reference value :  5.25525e-06
 Reference value :  5.25617e-06
 Reference value :  5.25714e-06
 Reference value :  5.25822e-06
 Reference value :  5.25978e-06
 Reference value :  5.26133e-06
 Reference value :  5.26379e-06
 Reference value :  5.26681e-06
 Reference value :  5.27218e-06
 Reference value :  5.28293e-06
 Reference value :  5.30180e-06
 Reference value :  5.31987e-06
 Reference value :  5.33328e-06
 Reference value :  5.34595e-06
 Reference value :  5.35797e-06
 Reference value :  5.37143e-06
 Reference value :  5.38614e-06
 Reference value :  5.40250e-06
 Reference value :  5.43522e-06
 Reference value :  5.48564e-06
 Reference value :  5.50000e-06
 Reference value :  5.50001e-06
 Reference value :  5.50003e-06
 Reference value :  5.50007e-06
 Reference value :  5.50010e-06
 Reference value :  5.50010e-06
 Reference value :  5.50011e-06
 Reference value :  5.50013e-06
 Reference value :  5.50016e-06
 Reference value :  5.50023e-06
 Reference value :  5.50036e-06
 Reference value :  5.50053e-06
 Reference value :  5.50087e-06
 Reference value :  5.50144e-06
 Reference value :  5.50221e-06
 Reference value :  5.50289e-06
 Reference value :  5.50356e-06
 Reference value :  5.50427e-06
 Reference value :  5.50524e-06
 Reference value :  5.50620e-06
 Reference value :  5.50717e-06
 Reference value :  5.50863e-06
 Reference value :  5.51001e-06
 Reference value :  5.51126e-06
 Reference value :  5.51252e-06
 Reference value :  5.51375e-06
 Reference value :  5.51520e-06
 Reference value :  5.51671e-06
 Reference value :  5.51838e-06
 Reference value :  5.52171e-06
 Reference value :  5.52838e-06
 Reference value :  5.53971e-06
 Reference value :  5.56236e-06
 Reference value :  5.60503e-06
 Reference value :  5.68498e-06
 Reference value :  5.75010e-06
 Reference value :  5.75011e-06
 Reference value :  5.75013e-06
 Reference value :  5.75017e-06
 Reference value :  5.75020e-06
 Reference value :  5.75020e-06
 Reference value :  5.75020e-06
 Reference value :  5.75021e-06
 Reference value :  5.75021e-06
 Reference value :  5.75022e-06
 Reference value :  5.75025e-06
 Reference value :  5.75030e-06
 Reference value :  5.75039e-06
 Reference value :  5.75059e-06
 Reference value :  5.75094e-06
 Reference value :  5.75136e-06
 Reference value :  5.75188e-06
 Reference value :  5.75249e-06
 Reference value :  5.75326e-06
 Reference value :  5.75413e-06
 Reference value :  5.75531e-06
 Reference value :  5.75622e-06
 Reference value :  5.75719e-06
 Reference value :  5.75822e-06
 Reference value :  5.75933e-06
 Reference value :  5.76055e-06
 Reference value :  5.76299e-06
 Reference value :  5.76565e-06
 Reference value :  5.77030e-06
 Reference value :  5.77874e-06
 Reference value :  5.79562e-06
 Reference value :  5.82881e-06
 Reference value :  5.89435e-06
 Reference value :  6.00000e-06
 Reference value :  6.00001e-06
 Reference value :  6.00003e-06
 Reference value :  6.00007e-06
 Reference value :  6.00010e-06
 Reference value :  6.00010e-06
 Reference value :  6.00011e-06
 Reference value :  6.00013e-06
 Reference value :  6.00016e-06
 Reference value :  6.00023e-06
 Reference value :  6.00036e-06
 Reference value :  6.00053e-06
 Reference value :  6.00087e-06
 Reference value :  6.00145e-06
 Reference value :  6.00221e-06
 Reference value :  6.00288e-06
 Reference value :  6.00356e-06
 Reference value :  6.00427e-06
 Reference value :  6.00525e-06
 Reference value :  6.00603e-06
 Reference value :  6.00685e-06
 Reference value :  6.00785e-06
 Reference value :  6.00867e-06
 Reference value :  6.00958e-06
 Reference value :  6.01058e-06
 Reference value :  6.01175e-06
 Reference value :  6.01354e-06
 Reference value :  6.01580e-06
 Reference value :  6.01813e-06
 Reference value :  6.02063e-06
 Reference value :  6.02241e-06
 Reference value :  6.02409e-06
 Reference value :  6.02575e-06
 Reference value :  6.02756e-06
 Reference value :  6.02950e-06
 Reference value :  6.03187e-06
 Reference value :  6.03437e-06
 Reference value :  6.03933e-06
 Reference value :  6.04417e-06
 Reference value :  6.05134e-06
 Reference value :  6.05833e-06
 Reference value :  6.06351e-06
 Reference value :  6.06879e-06
 Reference value :  6.07438e-06
 Reference value :  6.08058e-06
 Reference value :  6.08805e-06
 Reference value :  6.09560e-06
 Reference value :  6.10291e-06
 Reference value :  6.11753e-06
 Reference value :  6.13358e-06
 Reference value :  6.15927e-06
 Reference value :  6.19901e-06
 Reference value :  6.25010e-06
 Reference value :  6.25011e-06
 Reference value :  6.25013e-06
 Reference value :  6.25017e-06
 Reference value :  6.25020e-06
 Reference value :  6.25020e-06
 Reference value :  6.25020e-06
 Reference value :  6.25021e-06
 Reference value :  6.25021e-06
 Reference value :  6.25022e-06
 Reference value :  6.25025e-06
 Reference value :  6.25029e-06
 Reference value :  6.25039e-06
 Reference value :  6.25058e-06
 Reference value :  6.25092e-06
 Reference value :  6.25135e-06
 Reference value :  6.25187e-06
 Reference value :  6.25248e-06
 Reference value :  6.25324e-06
 Reference value :  6.25411e-06
 Reference value :  6.25524e-06
 Reference value :  6.25616e-06
 Reference value :  6.25713e-06
 Reference value :  6.25820e-06
 Reference value :  6.25977e-06
 Reference value :  6.26130e-06
 Reference value :  6.26377e-06
 Reference value :  6.26675e-06
 Reference value :  6.27211e-06
 Reference value :  6.28283e-06
 Reference value :  6.30162e-06
 Reference value :  6.33910e-06
 Reference value :  6.41000e-06
 Reference value :  6.50000e-06
 Reference value :  6.50001e-06
 Reference value :  6.50003e-06
 Reference value :  6.50007e-06
 Reference value :  6.50010e-06
 Reference value :  6.50010e-06
 Reference value :  6.50011e-06
 Reference value :  6.50013e-06
 Reference value :  6.50016e-06
 Reference value :  6.50023e-06
 Reference value :  6.50036e-06
 Reference value :  6.50053e-06
 Reference value :  6.50087e-06
 Reference value :  6.50145e-06
 Reference value :  6.50221e-06
 Reference value :  6.50284e-06
 Reference value :  6.50350e-06
 Reference value :  6.50419e-06
 Reference value :  6.50515e-06
 Reference value :  6.50611e-06
 Reference value :  6.50706e-06
 Reference value :  6.50854e-06
 Reference value :  6.50989e-06
 Reference value :  6.51126e-06
 Reference value :  6.51280e-06
 Reference value :  6.51419e-06
 Reference value :  6.51570e-06
 Reference value :  6.51721e-06
 Reference value :  6.51899e-06
 Reference value :  6.52254e-06
 Reference value :  6.52846e-06
 Reference value :  6.54030e-06
 Reference value :  6.56232e-06
 Reference value :  6.60342e-06
 Reference value :  6.68564e-06
 Reference value :  6.75010e-06
 Reference value :  6.75011e-06
 Reference value :  6.75013e-06
 Reference value :  6.75017e-06
 Reference value :  6.75020e-06
 Reference value :  6.75020e-06
 Reference value :  6.75020e-06
 Reference value :  6.75021e-06
 Reference value :  6.75021e-06
 Reference value :  6.75022e-06
 Reference value :  6.75025e-06
 Reference value :  6.75030e-06
 Reference value :  6.75039e-06
 Reference value :  6.75059e-06
 Reference value :  6.75094e-06
 Reference value :  6.75136e-06
 Reference value :  6.75188e-06
 Reference value :  6.75249e-06
 Reference value :  6.75326e-06
 Reference value :  6.75413e-06
 Reference value :  6.75531e-06
 Reference value :  6.75623e-06
 Reference value :  6.75720e-06
 Reference value :  6.75823e-06
 Reference value :  6.75934e-06
 Reference value :  6.76057e-06
 Reference value :  6.76184e-06
 Reference value :  6.76324e-06
 Reference value :  6.76537e-06
 Reference value :  6.76769e-06
 Reference value :  6.77130e-06
 Reference value :  6.77700e-06
 Reference value :  6.78839e-06
 Reference value :  6.81118e-06
 Reference value :  6.85571e-06
 Reference value :  6.94478e-06
 Reference value :  7.00000e-06
 Reference value :  7.00001e-06
 Reference value :  7.00003e-06
 Reference value :  7.00007e-06
 Reference value :  7.00010e-06
 Reference value :  7.00010e-06
 Reference value :  7.00011e-06
 Reference value :  7.00013e-06
 Reference value :  7.00016e-06
 Reference value :  7.00023e-06
 Reference value :  7.00036e-06
 Reference value :  7.00053e-06
 Reference value :  7.00087e-06
 Reference value :  7.00144e-06
 Reference value :  7.00221e-06
 Reference value :  7.00288e-06
 Reference value :  7.00356e-06
 Reference value :  7.00427e-06
 Reference value :  7.00513e-06
 Reference value :  7.00590e-06
 Reference value :  7.00672e-06
 Reference value :  7.00780e-06
 Reference value :  7.00878e-06
 Reference value :  7.00974e-06
 Reference value :  7.01079e-06
 Reference value :  7.01204e-06
 Reference value :  7.01385e-06
 Reference value :  7.01516e-06
 Reference value :  7.01664e-06
 Reference value :  7.01808e-06
 Reference value :  7.01975e-06
 Reference value :  7.02134e-06
 Reference value :  7.02246e-06
 Reference value :  7.02360e-06
 Reference value :  7.02476e-06
 Reference value :  7.02607e-06
 Reference value :  7.02747e-06
 Reference value :  7.02890e-06
 Reference value :  7.03095e-06
 Reference value :  7.03319e-06
 Reference value :  7.03740e-06
 Reference value :  7.04226e-06
 Reference value :  7.04859e-06
 Reference value :  7.05527e-06
 Reference value :  7.06574e-06
 Reference value :  7.08530e-06
 Reference value :  7.10388e-06
 Reference value :  7.12642e-06
 Reference value :  7.15408e-06
 Reference value :  7.17432e-06
 Reference value :  7.19538e-06
 Reference value :  7.21980e-06
 Reference value :  7.25010e-06
 Reference value :  7.25011e-06
 Reference value :  7.25013e-06
 Reference value :  7.25017e-06
 Reference value :  7.25020e-06
 Reference value :  7.25020e-06
 Reference value :  7.25020e-06
 Reference value :  7.25021e-06
 Reference value :  7.25021e-06
 Reference value :  7.25022e-06
 Reference value :  7.25025e-06
 Reference value :  7.25029e-06
 Reference value :  7.25039e-06
 Reference value :  7.25058e-06
 Reference value :  7.25092e-06
 Reference value :  7.25135e-06
 Reference value :  7.25187e-06
 Reference value :  7.25248e-06
 Reference value :  7.25324e-06
 Reference value :  7.25412e-06
 Reference value :  7.25529e-06
 Reference value :  7.25620e-06
 Reference value :  7.25716e-06
 Reference value :  7.25823e-06
 Reference value :  7.25980e-06
 Reference value :  7.26127e-06
 Reference value :  7.26377e-06
 Reference value :  7.26675e-06
 Reference value :  7.27222e-06
 Reference value :  7.28315e-06
 Reference value :  7.30206e-06
 Reference value :  7.33990e-06
 Reference value :  7.41207e-06
 Reference value :  7.50000e-06
 Reference value :  7.50001e-06
 Reference value :  7.50003e-06
 Reference value :  7.50007e-06
 Reference value :  7.50010e-06
 Reference value :  7.50010e-06
 Reference value :  7.50011e-06
 Reference value :  7.50013e-06
 Reference value :  7.50016e-06
 Reference value :  7.50023e-06
 Reference value :  7.50036e-06
 Reference value :  7.50053e-06
 Reference value :  7.50087e-06
 Reference value :  7.50150e-06
 Reference value :  7.50218e-06
 Reference value :  7.50280e-06
 Reference value :  7.50345e-06
 Reference value :  7.50413e-06
 Reference value :  7.50511e-06
 Reference value :  7.50600e-06
 Reference value :  7.50701e-06
 Reference value :  7.50826e-06
 Reference value :  7.50973e-06
 Reference value :  7.51115e-06
 Reference value :  7.51284e-06
 Reference value :  7.51438e-06
 Reference value :  7.51607e-06
 Reference value :  7.51780e-06
 Reference value :  7.51969e-06
 Reference value :  7.52348e-06
 Reference value :  7.52972e-06
 Reference value :  7.54040e-06
 Reference value :  7.56133e-06
 Reference value :  7.59974e-06
 Reference value :  7.67131e-06
 Reference value :  7.75010e-06
 Reference value :  7.75011e-06
 Reference value :  7.75013e-06
 Reference value :  7.75017e-06
 Reference value :  7.75020e-06
 Reference value :  7.75020e-06
 Reference value :  7.75020e-06
 Reference value :  7.75021e-06
 Reference value :  7.75021e-06
 Reference value :  7.75022e-06
 Reference value :  7.75025e-06
 Reference value :  7.75030e-06
 Reference value :  7.75039e-06
 Reference value :  7.75059e-06
 Reference value :  7.75094e-06
 Reference value :  7.75136e-06
 Reference value :  7.75188e-06
 Reference value :  7.75249e-06
 Reference value :  7.75326e-06
 Reference value :  7.75414e-06
 Reference value :  7.75527e-06
 Reference value :  7.75630e-06
 Reference value :  7.75729e-06
 Reference value :  7.75833e-06
 Reference value :  7.75950e-06
 Reference value :  7.76078e-06
 Reference value :  7.76318e-06
 Reference value :  7.76607e-06
 Reference value :  7.77100e-06
 Reference value :  7.78084e-06
 Reference value :  7.79901e-06
 Reference value :  7.83355e-06
 Reference value :  7.86467e-06
 Reference value :  7.88560e-06
 Reference value :  7.90614e-06
 Reference value :  7.92953e-06
 Reference value :  7.95393e-06
 Reference value :  7.98386e-06
 Reference value :  8.00000e-06
 Reference value :  8.00001e-06
 Reference value :  8.00003e-06
 Reference value :  8.00007e-06
 Reference value :  8.00010e-06
 Reference value :  8.00010e-06
 Reference value :  8.00011e-06
 Reference value :  8.00013e-06
 Reference value :  8.00016e-06
 Reference value :  8.00023e-06
 Reference value :  8.00036e-06
 Reference value :  8.00053e-06
 Reference value :  8.00087e-06
 Reference value :  8.00149e-06
 Reference value :  8.00218e-06
 Reference value :  8.00280e-06
 Reference value :  8.00345e-06
 Reference value :  8.00414e-06
 Reference value :  8.00500e-06
 Reference value :  8.00580e-06
 Reference value :  8.00665e-06
 Reference value :  8.00764e-06
 Reference value :  8.00867e-06
 Reference value :  8.00964e-06
 Reference value :  8.01065e-06
 Reference value :  8.01198e-06
 Reference value :  8.01359e-06
 Reference value :  8.01497e-06
 Reference value :  8.01650e-06
 Reference value :  8.01810e-06
 Reference value :  8.01987e-06
 Reference value :  8.02183e-06
 Reference value :  8.02419e-06
 Reference value :  8.02580e-06
 Reference value :  8.02753e-06
 Reference value :  8.02968e-06
 Reference value :  8.03203e-06
 Reference value :  8.03436e-06
 Reference value :  8.03903e-06
 Reference value :  8.04454e-06
 Reference value :  8.05374e-06
 Reference value :  8.06968e-06
 Reference value :  8.09470e-06
 Reference value :  8.13913e-06
 Reference value :  8.20054e-06
 Reference value :  8.25010e-06
 Reference value :  8.25011e-06
 Reference value :  8.25013e-06
 Reference value :  8.25017e-06
 Reference value :  8.25020e-06
 Reference value :  8.25020e-06
 Reference value :  8.25020e-06
 Reference value :  8.25021e-06
 Reference value :  8.25021e-06
 Reference value :  8.25022e-06
 Reference value :  8.25025e-06
 Reference value :  8.25030e-06
 Reference value :  8.25039e-06
 Reference value :  8.25059e-06
 Reference value :  8.25098e-06
 Reference value :  8.25139e-06
 Reference value :  8.25189e-06
 Reference value :  8.25250e-06
 Reference value :  8.25330e-06
 Reference value :  8.25418e-06
 Reference value :  8.25526e-06
 Reference value :  8.25645e-06
 Reference value :  8.25784e-06
 Reference value :  8.25942e-06
 Reference value :  8.26126e-06
 Reference value :  8.26400e-06
 Reference value :  8.26674e-06
 Reference value :  8.27189e-06
 Reference value :  8.28221e-06
 Reference value :  8.29887e-06
 Reference value :  8.33215e-06
 Reference value :  8.39032e-06
 Reference value :  8.50000e-06
 Reference value :  8.50000e-06
 Reference value :  8.50000e-06
 Reference value :  8.50000e-06
 Reference value :  8.50000e-06
 Reference value :  8.50000e-06
 Reference value :  8.50000e-06
 Reference value :  8.50000e-06
 Reference value :  8.50000e-06
 Reference value :  8.50001e-06
 Reference value :  8.50001e-06
 Reference value :  8.50002e-06
 Reference value :  8.50004e-06
 Reference value :  8.50008e-06
 Reference value :  8.50010e-06
 Reference value :  8.50010e-06
 Reference value :  8.50011e-06
 Reference value :  8.50012e-06
 Reference value :  8.50014e-06
 Reference value :  8.50018e-06
 Reference value :  8.50026e-06
 Reference value :  8.50043e-06
 Reference value :  8.50077e-06
 Reference value :  8.50124e-06
 Reference value :  8.50211e-06
 Reference value :  8.50295e-06
 Reference value :  8.50360e-06
 Reference value :  8.50441e-06
 Reference value :  8.50523e-06
 Reference value :  8.50622e-06
 Reference value :  8.50737e-06
 Reference value :  8.50865e-06
 Reference value :  8.51072e-06
 Reference value :  8.51234e-06
 Reference value :  8.51406e-06
 Reference value :  8.51588e-06
 Reference value :  8.51780e-06
 Reference value :  8.52005e-06
 Reference value :  8.52272e-06
 Reference value :  8.52806e-06
 Reference value :  8.53287e-06
 Reference value :  8.53660e-06
 Reference value :  8.53997e-06
 Reference value :  8.54279e-06
 Reference value :  8.54532e-06
 Reference value :  8.54741e-06
 Reference value :  8.54948e-06
 Reference value :  8.55144e-06
 Reference value :  8.55355e-06
 Reference value :  8.55644e-06
 Reference value :  8.56000e-06
 Reference value :  8.56530e-06
 Reference value :  8.57205e-06
 Reference value :  8.57952e-06
 Reference value :  8.58762e-06
 Reference value :  8.60010e-06
 Reference value :  8.61451e-06
 Reference value :  8.63296e-06
 Reference value :  8.65419e-06
 Reference value :  8.67765e-06
 Reference value :  8.70736e-06
 Reference value :  8.74761e-06
 Reference value :  8.75010e-06
 Reference value :  8.75011e-06
 Reference value :  8.75013e-06
 Reference value :  8.75017e-06
 Reference value :  8.75020e-06
 Reference value :  8.75020e-06
 Reference value :  8.75020e-06
 Reference value :  8.75021e-06
 Reference value :  8.75021e-06
 Reference value :  8.75022e-06
 Reference value :  8.75025e-06
 Reference value :  8.75030e-06
 Reference value :  8.75039e-06
 Reference value :  8.75058e-06
 Reference value :  8.75096e-06
 Reference value :  8.75137e-06
 Reference value :  8.75190e-06
 Reference value :  8.75251e-06
 Reference value :  8.75330e-06
 Reference value :  8.75419e-06
 Reference value :  8.75539e-06
 Reference value :  8.75634e-06
 Reference value :  8.75734e-06
 Reference value :  8.75841e-06
 Reference value :  8.75998e-06
 Reference value :  8.76153e-06
 Reference value :  8.76394e-06
 Reference value :  8.76722e-06
 Reference value :  8.77323e-06
 Reference value :  8.78525e-06
 Reference value :  8.80492e-06
 Reference value :  8.84425e-06
 Reference value :  8.91479e-06
 Reference value :  9.00000e-06
 Reference value :  9.00001e-06
 Reference value :  9.00003e-06
 Reference value :  9.00007e-06
 Reference value :  9.00010e-06
 Reference value :  9.00010e-06
 Reference value :  9.00011e-06
 Reference value :  9.00013e-06
 Reference value :  9.00016e-06
 Reference value :  9.00023e-06
 Reference value :  9.00036e-06
 Reference value :  9.00054e-06
 Reference value :  9.00089e-06
 Reference value :  9.00151e-06
 Reference value :  9.00220e-06
 Reference value :  9.00282e-06
 Reference value :  9.00350e-06
 Reference value :  9.00421e-06
 Reference value :  9.00519e-06
 Reference value :  9.00613e-06
 Reference value :  9.00711e-06
 Reference value :  9.00846e-06
 Reference value :  9.00985e-06
 Reference value :  9.01176e-06
 Reference value :  9.01407e-06
 Reference value :  9.01592e-06
 Reference value :  9.01789e-06
 Reference value :  9.01994e-06
 Reference value :  9.02223e-06
 Reference value :  9.02479e-06
 Reference value :  9.02749e-06
 Reference value :  9.03246e-06
 Reference value :  9.04088e-06
 Reference value :  9.05041e-06
 Reference value :  9.06948e-06
 Reference value :  9.10760e-06
 Reference value :  9.17117e-06
 Reference value :  9.25010e-06
 Reference value :  9.25011e-06
 Reference value :  9.25013e-06
 Reference value :  9.25017e-06
 Reference value :  9.25020e-06
 Reference value :  9.25020e-06
 Reference value :  9.25020e-06
 Reference value :  9.25021e-06
 Reference value :  9.25021e-06
 Reference value :  9.25022e-06
 Reference value :  9.25025e-06
 Reference value :  9.25030e-06
 Reference value :  9.25039e-06
 Reference value :  9.25059e-06
 Reference value :  9.25098e-06
 Reference value :  9.25139e-06
 Reference value :  9.25191e-06
 Reference value :  9.25252e-06
 Reference value :  9.25332e-06
 Reference value :  9.25422e-06
 Reference value :  9.25541e-06
 Reference value :  9.25650e-06
 Reference value :  9.25751e-06
 Reference value :  9.25859e-06
 Reference value :  9.25983e-06
 Reference value :  9.26116e-06
 Reference value :  9.26359e-06
 Reference value :  9.26677e-06
 Reference value :  9.27237e-06
 Reference value :  9.28357e-06
 Reference value :  9.30273e-06
 Reference value :  9.34008e-06
 Reference value :  9.40845e-06
 Reference value :  9.50000e-06
 Reference value :  9.50001e-06
 Reference value :  9.50003e-06
 Reference value :  9.50007e-06
 Reference value :  9.50010e-06
 Reference value :  9.50010e-06
 Reference value :  9.50011e-06
 Reference value :  9.50013e-06
 Reference value :  9.50016e-06
 Reference value :  9.50023e-06
 Reference value :  9.50036e-06
 Reference value :  9.50054e-06
 Reference value :  9.50089e-06
 Reference value :  9.50151e-06
 Reference value :  9.50220e-06
 Reference value :  9.50282e-06
 Reference value :  9.50346e-06
 Reference value :  9.50415e-06
 Reference value :  9.50499e-06
 Reference value :  9.50587e-06
 Reference value :  9.50671e-06
 Reference value :  9.50777e-06
 Reference value :  9.50887e-06
 Reference value :  9.50996e-06
 Reference value :  9.51099e-06
 Reference value :  9.51243e-06
 Reference value :  9.51411e-06
 Reference value :  9.51683e-06
 Reference value :  9.51884e-06
 Reference value :  9.52100e-06
 Reference value :  9.52260e-06
 Reference value :  9.52413e-06
 Reference value :  9.52557e-06
 Reference value :  9.52713e-06
 Reference value :  9.52883e-06
 Reference value :  9.53109e-06
 Reference value :  9.53342e-06
 Reference value :  9.53797e-06
 Reference value :  9.54427e-06
 Reference value :  9.55516e-06
 Reference value :  9.57330e-06
 Reference value :  9.59315e-06
 Reference value :  9.60651e-06
 Reference value :  9.61727e-06
 Reference value :  9.62792e-06
 Reference value :  9.63443e-06
 Reference value :  9.64292e-06
 Reference value :  9.65071e-06
 Reference value :  9.66608e-06
 Reference value :  9.68231e-06
 Reference value :  9.70750e-06
 Reference value :  9.74749e-06
 Reference value :  9.75010e-06
 Reference value :  9.75011e-06
 Reference value :  9.75013e-06
 Reference value :  9.75017e-06
 Reference value :  9.75020e-06
 Reference value :  9.75020e-06
 Reference value :  9.75020e-06
 Reference value :  9.75021e-06
 Reference value :  9.75021e-06
 Reference value :  9.75022e-06
 Reference value :  9.75025e-06
 Reference value :  9.75029e-06
 Reference value :  9.75039e-06
 Reference value :  9.75058e-06
 Reference value :  9.75092e-06
 Reference value :  9.75135e-06
 Reference value :  9.75187e-06
 Reference value :  9.75248e-06
 Reference value :  9.75324e-06
 Reference value :  9.75412e-06
 Reference value :  9.75525e-06
 Reference value :  9.75617e-06
 Reference value :  9.75713e-06
 Reference value :  9.75821e-06
 Reference value :  9.75978e-06
 Reference value :  9.76132e-06
 Reference value :  9.76379e-06
 Reference value :  9.76679e-06
 Reference value :  9.77216e-06
 Reference value :  9.78290e-06
 Reference value :  9.80164e-06
 Reference value :  9.83889e-06
 Reference value :  9.90989e-06
 Reference value :  1.00000e-05
 Reference value :  1.00000e-05
 Reference value :  1.00000e-05
 Reference value :  1.00001e-05
 Reference value :  1.00001e-05
 Reference value :  1.00001e-05
 Reference value :  1.00001e-05
 Reference value :  1.00001e-05
 Reference value :  1.00002e-05
 Reference value :  1.00002e-05
 Reference value :  1.00004e-05
 Reference value :  1.00005e-05
 Reference value :  1.00009e-05
 Reference value :  1.00014e-05
 Reference value :  1.00022e-05
 Reference value :  1.00028e-05
 Reference value :  1.00035e-05
 Reference value :  1.00042e-05
 Reference value :  1.00052e-05
 Reference value :  1.00061e-05
 Reference value :  1.00071e-05
 Reference value :  1.00086e-05
 Reference value :  1.00099e-05
 Reference value :  1.00113e-05
 Reference value :  1.00129e-05
 Reference value :  1.00146e-05
 Reference value :  1.00163e-05
 Reference value :  1.00181e-05
 Reference value :  1.00205e-05
 Reference value :  1.00237e-05
 Reference value :  1.00292e-05
 Reference value :  1.00383e-05
 Reference value :  1.00548e-05
 Reference value :  1.00853e-05
 Reference value :  1.01419e-05
 Reference value :  1.02501e-05
 Reference value :  1.02501e-05
 Reference value :  1.02501e-05
 Reference value :  1.02502e-05
 Reference value :  1.02502e-05
 Reference value :  1.02502e-05
 Reference value :  1.02502e-05
 Reference value :  1.02502e-05
 Reference value :  1.02502e-05
 Reference value :  1.02502e-05
 Reference value :  1.02502e-05
 Reference value :  1.02503e-05
 Reference value :  1.02504e-05
 Reference value :  1.02506e-05
 Reference value :  1.02509e-05
 Reference value :  1.02514e-05
 Reference value :  1.02519e-05
 Reference value :  1.02525e-05
 Reference value :  1.02533e-05
 Reference value :  1.02541e-05
 Reference value :  1.02553e-05
 Reference value :  1.02562e-05
 Reference value :  1.02572e-05
 Reference value :  1.02582e-05
 Reference value :  1.02593e-05
 Reference value :  1.02606e-05
 Reference value :  1.02618e-05
 Reference value :  1.02632e-05
 Reference value :  1.02654e-05
 Reference value :  1.02677e-05
 Reference value :  1.02713e-05
 Reference value :  1.02770e-05
 Reference value :  1.02883e-05
 Reference value :  1.03110e-05
 Reference value :  1.03563e-05
 Reference value :  1.04470e-05
 Reference value :  1.05000e-05
 Reference value :  1.05000e-05
 Reference value :  1.05000e-05
 Reference value :  1.05001e-05
 Reference value :  1.05001e-05
 Reference value :  1.05001e-05
 Reference value :  1.05001e-05
 Reference value :  1.05001e-05
 Reference value :  1.05002e-05
 Reference value :  1.05002e-05
 Reference value :  1.05004e-05
 Reference value :  1.05005e-05
 Reference value :  1.05009e-05
 Reference value :  1.05014e-05
 Reference value :  1.05022e-05
 Reference value :  1.05029e-05
 Reference value :  1.05036e-05
 Reference value :  1.05043e-05
 Reference value :  1.05051e-05
 Reference value :  1.05059e-05
 Reference value :  1.05067e-05
 Reference value :  1.05078e-05
 Reference value :  1.05088e-05
 Reference value :  1.05097e-05
 Reference value :  1.05108e-05
 Reference value :  1.05121e-05
 Reference value :  1.05137e-05
 Reference value :  1.05158e-05
 Reference value :  1.05173e-05
 Reference value :  1.05191e-05
 Reference value :  1.05208e-05
 Reference value :  1.05221e-05
 Reference value :  1.05235e-05
 Reference value :  1.05249e-05
 Reference value :  1.05263e-05
 Reference value :  1.05280e-05
 Reference value :  1.05297e-05
 Reference value :  1.05322e-05
 Reference value :  1.05349e-05
 Reference value :  1.05401e-05
 Reference value :  1.05486e-05
 Reference value :  1.05621e-05
 Reference value :  1.05881e-05
 Reference value :  1.06155e-05
 Reference value :  1.06418e-05
 Reference value :  1.06627e-05
 Reference value :  1.06723e-05
 Reference value :  1.06809e-05
 Reference value :  1.06904e-05
 Reference value :  1.07093e-05
 Reference value :  1.07346e-05
 Reference value :  1.07501e-05
 Reference value :  1.07501e-05
 Reference value :  1.07501e-05
 Reference value :  1.07502e-05
 Reference value :  1.07502e-05
 Reference value :  1.07502e-05
 Reference value :  1.07502e-05
 Reference value :  1.07502e-05
 Reference value :  1.07502e-05
 Reference value :  1.07502e-05
 Reference value :  1.07502e-05
 Reference value :  1.07503e-05
 Reference value :  1.07504e-05
 Reference value :  1.07506e-05
 Reference value :  1.07509e-05
 Reference value :  1.07514e-05
 Reference value :  1.07519e-05
 Reference value :  1.07525e-05
 Reference value :  1.07533e-05
 Reference value :  1.07541e-05
 Reference value :  1.07553e-05
 Reference value :  1.07562e-05
 Reference value :  1.07572e-05
 Reference value :  1.07583e-05
 Reference value :  1.07598e-05
 Reference value :  1.07613e-05
 Reference value :  1.07638e-05
 Reference value :  1.07668e-05
 Reference value :  1.07723e-05
 Reference value :  1.07833e-05
 Reference value :  1.08022e-05
 Reference value :  1.08401e-05
 Reference value :  1.09101e-05
 Reference value :  1.09672e-05
 Reference value :  1.10000e-05
 Reference value :  1.10000e-05
 Reference value :  1.10000e-05
 Reference value :  1.10001e-05
 Reference value :  1.10001e-05
 Reference value :  1.10001e-05
 Reference value :  1.10001e-05
 Reference value :  1.10001e-05
 Reference value :  1.10002e-05
 Reference value :  1.10002e-05
 Reference value :  1.10004e-05
 Reference value :  1.10005e-05
 Reference value :  1.10009e-05
 Reference value :  1.10014e-05
 Reference value :  1.10022e-05
 Reference value :  1.10029e-05
 Reference value :  1.10035e-05
 Reference value :  1.10042e-05
 Reference value :  1.10051e-05
 Reference value :  1.10061e-05
 Reference value :  1.10070e-05
 Reference value :  1.10083e-05
 Reference value :  1.10097e-05
 Reference value :  1.10111e-05
 Reference value :  1.10128e-05
 Reference value :  1.10143e-05
 Reference value :  1.10159e-05
 Reference value :  1.10176e-05
 Reference value :  1.10201e-05
 Reference value :  1.10226e-05
 Reference value :  1.10276e-05
 Reference value :  1.10350e-05
 Reference value :  1.10432e-05
 Reference value :  1.10520e-05
 Reference value :  1.10615e-05
 Reference value :  1.10804e-05
 Reference value :  1.11133e-05
 Reference value :  1.11517e-05
 Reference value :  1.11989e-05
 Reference value :  1.12501e-05
 Reference value :  1.12501e-05
 Reference value :  1.12501e-05
 Reference value :  1.12502e-05
 Reference value :  1.12502e-05
 Reference value :  1.12502e-05
 Reference value :  1.12502e-05
 Reference value :  1.12502e-05
 Reference value :  1.12502e-05
 Reference value :  1.12502e-05
 Reference value :  1.12502e-05
 Reference value :  1.12503e-05
 Reference value :  1.12504e-05
 Reference value :  1.12506e-05
 Reference value :  1.12509e-05
 Reference value :  1.12514e-05
 Reference value :  1.12519e-05
 Reference value :  1.12525e-05
 Reference value :  1.12533e-05
 Reference value :  1.12541e-05
 Reference value :  1.12553e-05
 Reference value :  1.12562e-05
 Reference value :  1.12572e-05
 Reference value :  1.12582e-05
 Reference value :  1.12593e-05
 Reference value :  1.12606e-05
 Reference value :  1.12619e-05
 Reference value :  1.12632e-05
 Reference value :  1.12654e-05
 Reference value :  1.12677e-05
 Reference value :  1.12713e-05
 Reference value :  1.12769e-05
 Reference value :  1.12882e-05
 Reference value :  1.13106e-05
 Reference value :  1.13556e-05
 Reference value :  1.14455e-05
 Reference value :  1.15000e-05
 Reference value :  1.15000e-05
 Reference value :  1.15000e-05
 Reference value :  1.15001e-05
 Reference value :  1.15001e-05
 Reference value :  1.15001e-05
 Reference value :  1.15001e-05
 Reference value :  1.15001e-05
 Reference value :  1.15002e-05
 Reference value :  1.15002e-05
 Reference value :  1.15004e-05
 Reference value :  1.15005e-05
 Reference value :  1.15009e-05
 Reference value :  1.15014e-05
 Reference value :  1.15022e-05
 Reference value :  1.15029e-05
 Reference value :  1.15036e-05
 Reference value :  1.15043e-05
 Reference value :  1.15051e-05
 Reference value :  1.15059e-05
 Reference value :  1.15067e-05
 Reference value :  1.15078e-05
 Reference value :  1.15088e-05
 Reference value :  1.15097e-05
 Reference value :  1.15108e-05
 Reference value :  1.15121e-05
 Reference value :  1.15137e-05
 Reference value :  1.15152e-05
 Reference value :  1.15169e-05
 Reference value :  1.15185e-05
 Reference value :  1.15202e-05
 Reference value :  1.15215e-05
 Reference value :  1.15226e-05
 Reference value :  1.15241e-05
 Reference value :  1.15256e-05
 Reference value :  1.15270e-05
 Reference value :  1.15287e-05
 Reference value :  1.15309e-05
 Reference value :  1.15332e-05
 Reference value :  1.15377e-05
 Reference value :  1.15416e-05
 Reference value :  1.15453e-05
 Reference value :  1.15478e-05
 Reference value :  1.15502e-05
 Reference value :  1.15526e-05
 Reference value :  1.15558e-05
 Reference value :  1.15608e-05
 Reference value :  1.15672e-05
 Reference value :  1.15765e-05
 Reference value :  1.15915e-05
 Reference value :  1.16132e-05
 Reference value :  1.16385e-05
 Reference value :  1.16654e-05
 Reference value :  1.16934e-05
 Reference value :  1.17281e-05
 Reference value :  1.17501e-05
 Reference value :  1.17501e-05
 Reference value :  1.17501e-05
 Reference value :  1.17502e-05
 Reference value :  1.17502e-05
 Reference value :  1.17502e-05
 Reference value :  1.17502e-05
 Reference value :  1.17502e-05
 Reference value :  1.17502e-05
 Reference value :  1.17502e-05
 Reference value :  1.17502e-05
 Reference value :  1.17503e-05
 Reference value :  1.17504e-05
 Reference value :  1.17506e-05
 Reference value :  1.17509e-05
 Reference value :  1.17514e-05
 Reference value :  1.17519e-05
 Reference value :  1.17525e-05
 Reference value :  1.17533e-05
 Reference value :  1.17541e-05
 Reference value :  1.17553e-05
 Reference value :  1.17562e-05
 Reference value :  1.17572e-05
 Reference value :  1.17583e-05
 Reference value :  1.17598e-05
 Reference value :  1.17613e-05
 Reference value :  1.17638e-05
 Reference value :  1.17668e-05
 Reference value :  1.17723e-05
 Reference value :  1.17834e-05
 Reference value :  1.18023e-05
 Reference value :  1.18402e-05
 Reference value :  1.19103e-05
 Reference value :  1.20000e-05
 Reference value :  1.20000e-05
 Reference value :  1.20000e-05
 Reference value :  1.20001e-05
 Reference value :  1.20001e-05
 Reference value :  1.20001e-05
 Reference value :  1.20001e-05
 Reference value :  1.20001e-05
 Reference value :  1.20002e-05
 Reference value :  1.20002e-05
 Reference value :  1.20004e-05
 Reference value :  1.20005e-05
 Reference value :  1.20009e-05
 Reference value :  1.20014e-05
 Reference value :  1.20022e-05
 Reference value :  1.20029e-05
 Reference value :  1.20036e-05
 Reference value :  1.20043e-05
 Reference value :  1.20052e-05
 Reference value :  1.20062e-05
 Reference value :  1.20072e-05
 Reference value :  1.20086e-05
 Reference value :  1.20100e-05
 Reference value :  1.20113e-05
 Reference value :  1.20126e-05
 Reference value :  1.20142e-05
 Reference value :  1.20158e-05
 Reference value :  1.20176e-05
 Reference value :  1.20196e-05
 Reference value :  1.20235e-05
 Reference value :  1.20294e-05
 Reference value :  1.20413e-05
 Reference value :  1.20638e-05
 Reference value :  1.21042e-05
 Reference value :  1.21836e-05
 Reference value :  1.22501e-05
 Reference value :  1.22501e-05
 Reference value :  1.22501e-05
 Reference value :  1.22502e-05
 Reference value :  1.22502e-05
 Reference value :  1.22502e-05
 Reference value :  1.22502e-05
 Reference value :  1.22502e-05
 Reference value :  1.22502e-05
 Reference value :  1.22502e-05
 Reference value :  1.22502e-05
 Reference value :  1.22503e-05
 Reference value :  1.22504e-05
 Reference value :  1.22506e-05
 Reference value :  1.22509e-05
 Reference value :  1.22514e-05
 Reference value :  1.22519e-05
 Reference value :  1.22525e-05
 Reference value :  1.22533e-05
 Reference value :  1.22541e-05
 Reference value :  1.22553e-05
 Reference value :  1.22562e-05
 Reference value :  1.22572e-05
 Reference value :  1.22582e-05
 Reference value :  1.22593e-05
 Reference value :  1.22606e-05
 Reference value :  1.22630e-05
 Reference value :  1.22657e-05
 Reference value :  1.22703e-05
 Reference value :  1.22788e-05
 Reference value :  1.22957e-05
 Reference value :  1.23288e-05
 Reference value :  1.23948e-05
 Reference value :  1.25000e-05
 Reference value :  1.25000e-05
 Reference value :  1.25000e-05
 Reference value :  1.25001e-05
 Reference value :  1.25001e-05
 Reference value :  1.25001e-05
 Reference value :  1.25001e-05
 Reference value :  1.25001e-05
 Reference value :  1.25002e-05
 Reference value :  1.25002e-05
 Reference value :  1.25004e-05
 Reference value :  1.25005e-05
 Reference value :  1.25009e-05
 Reference value :  1.25014e-05
 Reference value :  1.25022e-05
 Reference value :  1.25029e-05
 Reference value :  1.25036e-05
 Reference value :  1.25043e-05
 Reference value :  1.25052e-05
 Reference value :  1.25060e-05
 Reference value :  1.25069e-05
 Reference value :  1.25078e-05
 Reference value :  1.25089e-05
 Reference value :  1.25099e-05
 Reference value :  1.25110e-05
 Reference value :  1.25123e-05
 Reference value :  1.25141e-05
 Reference value :  1.25167e-05
 Reference value :  1.25187e-05
 Reference value :  1.25208e-05
 Reference value :  1.25223e-05
 Reference value :  1.25238e-05
 Reference value :  1.25252e-05
 Reference value :  1.25268e-05
 Reference value :  1.25284e-05
 Reference value :  1.25306e-05
 Reference value :  1.25329e-05
 Reference value :  1.25373e-05
 Reference value :  1.25439e-05
 Reference value :  1.25554e-05
 Reference value :  1.25715e-05
 Reference value :  1.26037e-05
 Reference value :  1.26348e-05
 Reference value :  1.26645e-05
 Reference value :  1.26972e-05
 Reference value :  1.27368e-05
 Reference value :  1.27501e-05
 Reference value :  1.27501e-05
 Reference value :  1.27501e-05
 Reference value :  1.27502e-05
 Reference value :  1.27502e-05
 Reference value :  1.27502e-05
 Reference value :  1.27502e-05
 Reference value :  1.27502e-05
 Reference value :  1.27502e-05
 Reference value :  1.27502e-05
 Reference value :  1.27502e-05
 Reference value :  1.27503e-05
 Reference value :  1.27504e-05
 Reference value :  1.27506e-05
 Reference value :  1.27509e-05
 Reference value :  1.27513e-05
 Reference value :  1.27519e-05
 Reference value :  1.27525e-05
 Reference value :  1.27532e-05
 Reference value :  1.27541e-05
 Reference value :  1.27553e-05
 Reference value :  1.27562e-05
 Reference value :  1.27571e-05
 Reference value :  1.27582e-05
 Reference value :  1.27596e-05
 Reference value :  1.27611e-05
 Reference value :  1.27635e-05
 Reference value :  1.27664e-05
 Reference value :  1.27715e-05
 Reference value :  1.27816e-05
 Reference value :  1.28002e-05
 Reference value :  1.28363e-05
 Reference value :  1.29074e-05
 Reference value :  1.30000e-05
 Reference value :  1.30000e-05
 Reference value :  1.30000e-05
 Reference value :  1.30001e-05
 Reference value :  1.30001e-05
 Reference value :  1.30001e-05
 Reference value :  1.30001e-05
 Reference value :  1.30001e-05
 Reference value :  1.30002e-05
 Reference value :  1.30002e-05
 Reference value :  1.30004e-05
 Reference value :  1.30005e-05
 Reference value :  1.30009e-05
 Reference value :  1.30014e-05
 Reference value :  1.30022e-05
 Reference value :  1.30029e-05
 Reference value :  1.30036e-05
 Reference value :  1.30043e-05
 Reference value :  1.30052e-05
 Reference value :  1.30062e-05
 Reference value :  1.30072e-05
 Reference value :  1.30086e-05
 Reference value :  1.30100e-05
 Reference value :  1.30112e-05
 Reference value :  1.30125e-05
 Reference value :  1.30138e-05
 Reference value :  1.30153e-05
 Reference value :  1.30170e-05
 Reference value :  1.30187e-05
 Reference value :  1.30221e-05
 Reference value :  1.30290e-05
 Reference value :  1.30407e-05
 Reference value :  1.30640e-05
 Reference value :  1.31076e-05
 Reference value :  1.31891e-05
 Reference value :  1.32501e-05
 Reference value :  1.32501e-05
 Reference value :  1.32501e-05
 Reference value :  1.32502e-05
 Reference value :  1.32502e-05
 Reference value :  1.32502e-05
 Reference value :  1.32502e-05
 Reference value :  1.32502e-05
 Reference value :  1.32502e-05
 Reference value :  1.32502e-05
 Reference value :  1.32502e-05
 Reference value :  1.32503e-05
 Reference value :  1.32504e-05
 Reference value :  1.32506e-05
 Reference value :  1.32509e-05
 Reference value :  1.32514e-05
 Reference value :  1.32519e-05
 Reference value :  1.32525e-05
 Reference value :  1.32533e-05
 Reference value :  1.32541e-05
 Reference value :  1.32553e-05
 Reference value :  1.32562e-05
 Reference value :  1.32572e-05
 Reference value :  1.32582e-05
 Reference value :  1.32593e-05
 Reference value :  1.32606e-05
 Reference value :  1.32630e-05
 Reference value :  1.32657e-05
 Reference value :  1.32703e-05
 Reference value :  1.32788e-05
 Reference value :  1.32957e-05
 Reference value :  1.33288e-05
 Reference value :  1.33942e-05
 Reference value :  1.35000e-05
 Reference value :  1.35000e-05
 Reference value :  1.35000e-05
 Reference value :  1.35001e-05
 Reference value :  1.35001e-05
 Reference value :  1.35001e-05
 Reference value :  1.35001e-05
 Reference value :  1.35001e-05
 Reference value :  1.35002e-05
 Reference value :  1.35002e-05
 Reference value :  1.35004e-05
 Reference value :  1.35005e-05
 Reference value :  1.35009e-05
 Reference value :  1.35014e-05
 Reference value :  1.35022e-05
 Reference value :  1.35029e-05
 Reference value :  1.35036e-05
 Reference value :  1.35043e-05
 Reference value :  1.35053e-05
 Reference value :  1.35060e-05
 Reference value :  1.35069e-05
 Reference value :  1.35079e-05
 Reference value :  1.35087e-05
 Reference value :  1.35097e-05
 Reference value :  1.35107e-05
 Reference value :  1.35119e-05
 Reference value :  1.35136e-05
 Reference value :  1.35158e-05
 Reference value :  1.35181e-05
 Reference value :  1.35204e-05
 Reference value :  1.35221e-05
 Reference value :  1.35236e-05
 Reference value :  1.35252e-05
 Reference value :  1.35269e-05
 Reference value :  1.35288e-05
 Reference value :  1.35307e-05
 Reference value :  1.35334e-05
 Reference value :  1.35376e-05
 Reference value :  1.35437e-05
 Reference value :  1.35510e-05
 Reference value :  1.35579e-05
 Reference value :  1.35674e-05
 Reference value :  1.35767e-05
 Reference value :  1.35838e-05
 Reference value :  1.35916e-05
 Reference value :  1.35988e-05
 Reference value :  1.36050e-05
 Reference value :  1.36129e-05
 Reference value :  1.36288e-05
 Reference value :  1.36503e-05
 Reference value :  1.36886e-05
 Reference value :  1.37293e-05
 Reference value :  1.37501e-05
 Reference value :  1.37501e-05
 Reference value :  1.37501e-05
 Reference value :  1.37502e-05
 Reference value :  1.37502e-05
 Reference value :  1.37502e-05
 Reference value :  1.37502e-05
 Reference value :  1.37502e-05
 Reference value :  1.37502e-05
 Reference value :  1.37502e-05
 Reference value :  1.37502e-05
 Reference value :  1.37503e-05
 Reference value :  1.37504e-05
 Reference value :  1.37506e-05
 Reference value :  1.37509e-05
 Reference value :  1.37513e-05
 Reference value :  1.37519e-05
 Reference value :  1.37525e-05
 Reference value :  1.37532e-05
 Reference value :  1.37541e-05
 Reference value :  1.37552e-05
 Reference value :  1.37562e-05
 Reference value :  1.37572e-05
 Reference value :  1.37582e-05
 Reference value :  1.37598e-05
 Reference value :  1.37614e-05
 Reference value :  1.37638e-05
 Reference value :  1.37669e-05
 Reference value :  1.37698e-05
 Reference value :  1.37733e-05
 Reference value :  1.37779e-05
 Reference value :  1.37822e-05
 Reference value :  1.37899e-05
 Reference value :  1.37990e-05
 Reference value :  1.38084e-05
 Reference value :  1.38210e-05
 Reference value :  1.38339e-05
 Reference value :  1.38598e-05
 Reference value :  1.39009e-05
 Reference value :  1.39833e-05
 Reference value :  1.40000e-05
 Reference value :  1.40000e-05
 Reference value :  1.40000e-05
 Reference value :  1.40001e-05
 Reference value :  1.40001e-05
 Reference value :  1.40001e-05
 Reference value :  1.40001e-05
 Reference value :  1.40001e-05
 Reference value :  1.40002e-05
 Reference value :  1.40002e-05
 Reference value :  1.40004e-05
 Reference value :  1.40005e-05
 Reference value :  1.40009e-05
 Reference value :  1.40014e-05
 Reference value :  1.40022e-05
 Reference value :  1.40029e-05
 Reference value :  1.40036e-05
 Reference value :  1.40043e-05
 Reference value :  1.40052e-05
 Reference value :  1.40062e-05
 Reference value :  1.40072e-05
 Reference value :  1.40086e-05
 Reference value :  1.40100e-05
 Reference value :  1.40113e-05
 Reference value :  1.40125e-05
 Reference value :  1.40137e-05
 Reference value :  1.40152e-05
 Reference value :  1.40167e-05
 Reference value :  1.40184e-05
 Reference value :  1.40217e-05
 Reference value :  1.40284e-05
 Reference value :  1.40397e-05
 Reference value :  1.40624e-05
 Reference value :  1.41052e-05
 Reference value :  1.41855e-05
 Reference value :  1.42501e-05
 Reference value :  1.42501e-05
 Reference value :  1.42501e-05
 Reference value :  1.42502e-05
 Reference value :  1.42502e-05
 Reference value :  1.42502e-05
 Reference value :  1.42502e-05
 Reference value :  1.42502e-05
 Reference value :  1.42502e-05
 Reference value :  1.42502e-05
 Reference value :  1.42502e-05
 Reference value :  1.42503e-05
 Reference value :  1.42504e-05
 Reference value :  1.42506e-05
 Reference value :  1.42509e-05
 Reference value :  1.42514e-05
 Reference value :  1.42519e-05
 Reference value :  1.42525e-05
 Reference value :  1.42533e-05
 Reference value :  1.42541e-05
 Reference value :  1.42553e-05
 Reference value :  1.42562e-05
 Reference value :  1.42572e-05
 Reference value :  1.42582e-05
 Reference value :  1.42593e-05
 Reference value :  1.42606e-05
 Reference value :  1.42630e-05
 Reference value :  1.42657e-05
 Reference value :  1.42703e-05
 Reference value :  1.42787e-05
 Reference value :  1.42956e-05
 Reference value :  1.43286e-05
 Reference value :  1.43946e-05
 Reference value :  1.45000e-05
 Reference value :  1.45000e-05
 Reference value :  1.45000e-05
 Reference value :  1.45001e-05
 Reference value :  1.45001e-05
 Reference value :  1.45001e-05
 Reference value :  1.45001e-05
 Reference value :  1.45001e-05
 Reference value :  1.45002e-05
 Reference value :  1.45002e-05
 Reference value :  1.45004e-05
 Reference value :  1.45005e-05
 Reference value :  1.45009e-05
 Reference value :  1.45014e-05
 Reference value :  1.45022e-05
 Reference value :  1.45029e-05
 Reference value :  1.45036e-05
 Reference value :  1.45043e-05
 Reference value :  1.45053e-05
 Reference value :  1.45060e-05
 Reference value :  1.45069e-05
 Reference value :  1.45078e-05
 Reference value :  1.45087e-05
 Reference value :  1.45096e-05
 Reference value :  1.45106e-05
 Reference value :  1.45117e-05
 Reference value :  1.45135e-05
 Reference value :  1.45158e-05
 Reference value :  1.45181e-05
 Reference value :  1.45206e-05
 Reference value :  1.45224e-05
 Reference value :  1.45241e-05
 Reference value :  1.45257e-05
 Reference value :  1.45275e-05
 Reference value :  1.45295e-05
 Reference value :  1.45318e-05
 Reference value :  1.45343e-05
 Reference value :  1.45392e-05
 Reference value :  1.45442e-05
 Reference value :  1.45516e-05
 Reference value :  1.45588e-05
 Reference value :  1.45642e-05
 Reference value :  1.45701e-05
 Reference value :  1.45759e-05
 Reference value :  1.45825e-05
 Reference value :  1.45898e-05
 Reference value :  1.45974e-05
 Reference value :  1.46048e-05
 Reference value :  1.46198e-05
 Reference value :  1.46390e-05
 Reference value :  1.46694e-05
 Reference value :  1.47177e-05
 Reference value :  1.47501e-05
 Reference value :  1.47501e-05
 Reference value :  1.47501e-05
 Reference value :  1.47502e-05
 Reference value :  1.47502e-05
 Reference value :  1.47502e-05
 Reference value :  1.47502e-05
 Reference value :  1.47502e-05
 Reference value :  1.47502e-05
 Reference value :  1.47502e-05
 Reference value :  1.47502e-05
 Reference value :  1.47503e-05
 Reference value :  1.47504e-05
 Reference value :  1.47506e-05
 Reference value :  1.47509e-05
 Reference value :  1.47513e-05
 Reference value :  1.47519e-05
 Reference value :  1.47525e-05
 Reference value :  1.47532e-05
 Reference value :  1.47541e-05
 Reference value :  1.47552e-05
 Reference value :  1.47562e-05
 Reference value :  1.47571e-05
 Reference value :  1.47582e-05
 Reference value :  1.47598e-05
 Reference value :  1.47613e-05
 Reference value :  1.47638e-05
 Reference value :  1.47668e-05
 Reference value :  1.47721e-05
 Reference value :  1.47828e-05
 Reference value :  1.48016e-05
 Reference value :  1.48389e-05
 Reference value :  1.49097e-05
 Reference value :  1.50000e-05
 Reference value :  1.50000e-05
 Reference value :  1.50000e-05
 Reference value :  1.50001e-05
 Reference value :  1.50001e-05
 Reference value :  1.50001e-05
 Reference value :  1.50001e-05
 Reference value :  1.50001e-05
 Reference value :  1.50002e-05
 Reference value :  1.50002e-05
 Reference value :  1.50004e-05
 Reference value :  1.50005e-05
 Reference value :  1.50009e-05
 Reference value :  1.50014e-05
 Reference value :  1.50022e-05
 Reference value :  1.50028e-05
 Reference value :  1.50035e-05
 Reference value :  1.50042e-05
 Reference value :  1.50051e-05
 Reference value :  1.50061e-05
 Reference value :  1.50071e-05
 Reference value :  1.50085e-05
 Reference value :  1.50099e-05
 Reference value :  1.50113e-05
 Reference value :  1.50128e-05
 Reference value :  1.50142e-05
 Reference value :  1.50157e-05
 Reference value :  1.50172e-05
 Reference value :  1.50190e-05
 Reference value :  1.50225e-05
 Reference value :  1.50284e-05
 Reference value :  1.50403e-05
 Reference value :  1.50622e-05
 Reference value :  1.51032e-05
 Reference value :  1.51852e-05
 Reference value :  1.52501e-05
 Reference value :  1.52501e-05
 Reference value :  1.52501e-05
 Reference value :  1.52502e-05
 Reference value :  1.52502e-05
 Reference value :  1.52502e-05
 Reference value :  1.52502e-05
 Reference value :  1.52502e-05
 Reference value :  1.52502e-05
 Reference value :  1.52502e-05
 Reference value :  1.52502e-05
 Reference value :  1.52503e-05
 Reference value :  1.52504e-05
 Reference value :  1.52506e-05
 Reference value :  1.52509e-05
 Reference value :  1.52514e-05
 Reference value :  1.52519e-05
 Reference value :  1.52525e-05
 Reference value :  1.52533e-05
 Reference value :  1.52541e-05
 Reference value :  1.52553e-05
 Reference value :  1.52562e-05
 Reference value :  1.52572e-05
 Reference value :  1.52582e-05
 Reference value :  1.52593e-05
 Reference value :  1.52606e-05
 Reference value :  1.52618e-05
 Reference value :  1.52632e-05
 Reference value :  1.52654e-05
 Reference value :  1.52677e-05
 Reference value :  1.52713e-05
 Reference value :  1.52770e-05
 Reference value :  1.52884e-05
 Reference value :  1.53112e-05
 Reference value :  1.53557e-05
 Reference value :  1.54448e-05
 Reference value :  1.55000e-05
 Reference value :  1.55008e-05
 Reference value :  1.55024e-05
 Reference value :  1.55032e-05
 Reference value :  1.55040e-05
 Reference value :  1.55050e-05
 Reference value :  1.55059e-05
 Reference value :  1.55068e-05
 Reference value :  1.55076e-05
 Reference value :  1.55085e-05
 Reference value :  1.55094e-05
 Reference value :  1.55104e-05
 Reference value :  1.55116e-05
 Reference value :  1.55132e-05
 Reference value :  1.55149e-05
 Reference value :  1.55167e-05
 Reference value :  1.55186e-05
 Reference value :  1.55203e-05
 Reference value :  1.55219e-05
 Reference value :  1.55235e-05
 Reference value :  1.55252e-05
 Reference value :  1.55269e-05
 Reference value :  1.55287e-05
 Reference value :  1.55308e-05
 Reference value :  1.55337e-05
 Reference value :  1.55372e-05
 Reference value :  1.55415e-05
 Reference value :  1.55470e-05
 Reference value :  1.55528e-05
 Reference value :  1.55603e-05
 Reference value :  1.55695e-05
 Reference value :  1.55765e-05
 Reference value :  1.55839e-05
 Reference value :  1.55925e-05
 Reference value :  1.56057e-05
 Reference value :  1.56217e-05
 Reference value :  1.56389e-05
 Reference value :  1.56571e-05
 Reference value :  1.56937e-05
 Reference value :  1.57501e-05
 Reference value :  1.57501e-05
 Reference value :  1.57501e-05
 Reference value :  1.57502e-05
 Reference value :  1.57502e-05
 Reference value :  1.57502e-05
 Reference value :  1.57502e-05
 Reference value :  1.57502e-05
[...]
 Reference value :  1.74500e-04
 Reference value :  1.74500e-04
 Reference value :  1.74500e-04
 Reference value :  1.74500e-04
 Reference value :  1.74500e-04
 Reference value :  1.74500e-04
 Reference value :  1.74500e-04
 Reference value :  1.74500e-04
 Reference value :  1.74500e-04
 Reference value :  1.74501e-04
 Reference value :  1.74501e-04
 Reference value :  1.74501e-04
 Reference value :  1.74502e-04
 Reference value :  1.74503e-04
 Reference value :  1.74504e-04
 Reference value :  1.74504e-04
 Reference value :  1.74505e-04
 Reference value :  1.74506e-04
 Reference value :  1.74507e-04
 Reference value :  1.74509e-04
 Reference value :  1.74510e-04
 Reference value :  1.74511e-04
 Reference value :  1.74513e-04
 Reference value :  1.74514e-04
 Reference value :  1.74515e-04
 Reference value :  1.74517e-04
 Reference value :  1.74519e-04
 Reference value :  1.74522e-04
 Reference value :  1.74529e-04
 Reference value :  1.74541e-04
 Reference value :  1.74565e-04
 Reference value :  1.74610e-04
 Reference value :  1.74699e-04
 Reference value :  1.74750e-04
 Reference value :  1.74750e-04
 Reference value :  1.74750e-04
 Reference value :  1.74750e-04
 Reference value :  1.74750e-04
 Reference value :  1.74750e-04
 Reference value :  1.74750e-04
 Reference value :  1.74750e-04
 Reference value :  1.74750e-04
 Reference value :  1.74750e-04
 Reference value :  1.74750e-04
 Reference value :  1.74750e-04
 Reference value :  1.74750e-04
 Reference value :  1.74751e-04
 Reference value :  1.74751e-04
 Reference value :  1.74751e-04
 Reference value :  1.74752e-04
 Reference value :  1.74752e-04
 Reference value :  1.74753e-04
 Reference value :  1.74754e-04
 Reference value :  1.74755e-04
 Reference value :  1.74756e-04
 Reference value :  1.74757e-04
 Reference value :  1.74758e-04
 Reference value :  1.74759e-04
 Reference value :  1.74761e-04
 Reference value :  1.74762e-04
 Reference value :  1.74763e-04
 Reference value :  1.74765e-04
 Reference value :  1.74768e-04
 Reference value :  1.74771e-04
 Reference value :  1.74777e-04
 Reference value :  1.74789e-04
 Reference value :  1.74811e-04
 Reference value :  1.74857e-04
 Reference value :  1.74948e-04
 Reference value :  1.75000e-04
 Reference value :  1.75000e-04
 Reference value :  1.75000e-04
 Reference value :  1.75000e-04
 Reference value :  1.75000e-04
 Reference value :  1.75000e-04
 Reference value :  1.75000e-04
 Reference value :  1.75000e-04
 Reference value :  1.75000e-04
 Reference value :  1.75000e-04
 Reference value :  1.75000e-04
 Reference value :  1.75001e-04
 Reference value :  1.75001e-04
 Reference value :  1.75001e-04
 Reference value :  1.75002e-04
 Reference value :  1.75003e-04
 Reference value :  1.75004e-04
 Reference value :  1.75004e-04
 Reference value :  1.75005e-04
 Reference value :  1.75006e-04
 Reference value :  1.75007e-04
 Reference value :  1.75008e-04
 Reference value :  1.75009e-04
 Reference value :  1.75010e-04
 Reference value :  1.75011e-04
 Reference value :  1.75012e-04
 Reference value :  1.75014e-04
 Reference value :  1.75015e-04
 Reference value :  1.75016e-04
 Reference value :  1.75018e-04
 Reference value :  1.75019e-04
 Reference value :  1.75021e-04
 Reference value :  1.75023e-04
 Reference value :  1.75024e-04
 Reference value :  1.75026e-04
 Reference value :  1.75027e-04
 Reference value :  1.75029e-04
 Reference value :  1.75031e-04
 Reference value :  1.75033e-04
 Reference value :  1.75038e-04
 Reference value :  1.75042e-04
 Reference value :  1.75046e-04
 Reference value :  1.75051e-04
 Reference value :  1.75055e-04
 Reference value :  1.75058e-04
 Reference value :  1.75060e-04
 Reference value :  1.75064e-04
 Reference value :  1.75068e-04
 Reference value :  1.75073e-04
 Reference value :  1.75082e-04
 Reference value :  1.75094e-04
 Reference value :  1.75110e-04
 Reference value :  1.75136e-04
 Reference value :  1.75160e-04
 Reference value :  1.75183e-04
 Reference value :  1.75199e-04
 Reference value :  1.75214e-04
 Reference value :  1.75225e-04
 Reference value :  1.75238e-04
 Reference value :  1.75250e-04
 Reference value :  1.75250e-04
 Reference value :  1.75250e-04
 Reference value :  1.75250e-04
 Reference value :  1.75250e-04
 Reference value :  1.75250e-04
 Reference value :  1.75250e-04
 Reference value :  1.75250e-04
 Reference value :  1.75250e-04
 Reference value :  1.75250e-04
 Reference value :  1.75250e-04
 Reference value :  1.75250e-04
 Reference value :  1.75250e-04
 Reference value :  1.75251e-04
 Reference value :  1.75251e-04
 Reference value :  1.75251e-04
 Reference value :  1.75252e-04
 Reference value :  1.75252e-04
 Reference value :  1.75253e-04
 Reference value :  1.75254e-04
 Reference value :  1.75255e-04
 Reference value :  1.75256e-04
 Reference value :  1.75257e-04
 Reference value :  1.75258e-04
 Reference value :  1.75260e-04
 Reference value :  1.75262e-04
 Reference value :  1.75264e-04
 Reference value :  1.75268e-04
 Reference value :  1.75274e-04
 Reference value :  1.75285e-04
 Reference value :  1.75305e-04
 Reference value :  1.75344e-04
 Reference value :  1.75414e-04
 Reference value :  1.75488e-04
 Reference value :  1.75500e-04
 Reference value :  1.75500e-04
 Reference value :  1.75500e-04
 Reference value :  1.75500e-04
 Reference value :  1.75500e-04
 Reference value :  1.75500e-04
 Reference value :  1.75500e-04
 Reference value :  1.75500e-04
 Reference value :  1.75500e-04
 Reference value :  1.75500e-04
 Reference value :  1.75500e-04
 Reference value :  1.75501e-04
 Reference value :  1.75501e-04
 Reference value :  1.75501e-04
 Reference value :  1.75502e-04
 Reference value :  1.75503e-04
 Reference value :  1.75504e-04
 Reference value :  1.75504e-04
 Reference value :  1.75505e-04
 Reference value :  1.75506e-04
 Reference value :  1.75507e-04
 Reference value :  1.75509e-04
 Reference value :  1.75510e-04
 Reference value :  1.75511e-04
 Reference value :  1.75513e-04
 Reference value :  1.75514e-04
 Reference value :  1.75515e-04
 Reference value :  1.75517e-04
 Reference value :  1.75519e-04
 Reference value :  1.75522e-04
 Reference value :  1.75529e-04
 Reference value :  1.75540e-04
 Reference value :  1.75564e-04
 Reference value :  1.75608e-04
 Reference value :  1.75696e-04
 Reference value :  1.75750e-04
 Reference value :  1.75750e-04
 Reference value :  1.75750e-04
 Reference value :  1.75750e-04
 Reference value :  1.75750e-04
 Reference value :  1.75750e-04
 Reference value :  1.75750e-04
 Reference value :  1.75750e-04
 Reference value :  1.75750e-04
 Reference value :  1.75750e-04
 Reference value :  1.75750e-04
 Reference value :  1.75750e-04
 Reference value :  1.75750e-04
 Reference value :  1.75751e-04
 Reference value :  1.75751e-04
 Reference value :  1.75751e-04
 Reference value :  1.75752e-04
 Reference value :  1.75752e-04
 Reference value :  1.75753e-04
 Reference value :  1.75754e-04
 Reference value :  1.75755e-04
 Reference value :  1.75756e-04
 Reference value :  1.75757e-04
 Reference value :  1.75758e-04
 Reference value :  1.75759e-04
 Reference value :  1.75761e-04
 Reference value :  1.75762e-04
 Reference value :  1.75763e-04
 Reference value :  1.75765e-04
 Reference value :  1.75768e-04
 Reference value :  1.75771e-04
 Reference value :  1.75777e-04
 Reference value :  1.75788e-04
 Reference value :  1.75811e-04
 Reference value :  1.75857e-04
 Reference value :  1.75948e-04
 Reference value :  1.76000e-04
 Reference value :  1.76000e-04
 Reference value :  1.76000e-04
 Reference value :  1.76000e-04
 Reference value :  1.76000e-04
 Reference value :  1.76000e-04
 Reference value :  1.76000e-04
 Reference value :  1.76000e-04
 Reference value :  1.76000e-04
 Reference value :  1.76000e-04
 Reference value :  1.76000e-04
 Reference value :  1.76001e-04
 Reference value :  1.76001e-04
 Reference value :  1.76001e-04
 Reference value :  1.76002e-04
 Reference value :  1.76003e-04
 Reference value :  1.76004e-04
 Reference value :  1.76004e-04
 Reference value :  1.76005e-04
 Reference value :  1.76006e-04
 Reference value :  1.76007e-04
 Reference value :  1.76008e-04
 Reference value :  1.76009e-04
 Reference value :  1.76010e-04
 Reference value :  1.76011e-04
 Reference value :  1.76012e-04
 Reference value :  1.76014e-04
 Reference value :  1.76015e-04
 Reference value :  1.76017e-04
 Reference value :  1.76018e-04
 Reference value :  1.76020e-04
 Reference value :  1.76021e-04
 Reference value :  1.76022e-04
 Reference value :  1.76024e-04
 Reference value :  1.76025e-04
 Reference value :  1.76026e-04
 Reference value :  1.76028e-04
 Reference value :  1.76029e-04
 Reference value :  1.76032e-04
 Reference value :  1.76035e-04
 Reference value :  1.76039e-04
 Reference value :  1.76043e-04
 Reference value :  1.76047e-04
 Reference value :  1.76050e-04
 Reference value :  1.76053e-04
 Reference value :  1.76057e-04
 Reference value :  1.76061e-04
 Reference value :  1.76066e-04
 Reference value :  1.76076e-04
 Reference value :  1.76088e-04
 Reference value :  1.76109e-04
 Reference value :  1.76146e-04
 Reference value :  1.76201e-04
 Reference value :  1.76250e-04
 Reference value :  1.76250e-04
 Reference value :  1.76250e-04
 Reference value :  1.76250e-04
 Reference value :  1.76250e-04
 Reference value :  1.76250e-04
 Reference value :  1.76250e-04
 Reference value :  1.76250e-04
 Reference value :  1.76250e-04
 Reference value :  1.76250e-04
 Reference value :  1.76250e-04
 Reference value :  1.76250e-04
 Reference value :  1.76250e-04
 Reference value :  1.76251e-04
 Reference value :  1.76251e-04
 Reference value :  1.76251e-04
 Reference value :  1.76252e-04
 Reference value :  1.76252e-04
 Reference value :  1.76253e-04
 Reference value :  1.76254e-04
 Reference value :  1.76255e-04
 Reference value :  1.76256e-04
 Reference value :  1.76257e-04
 Reference value :  1.76258e-04
 Reference value :  1.76260e-04
 Reference value :  1.76261e-04
 Reference value :  1.76264e-04
 Reference value :  1.76267e-04
 Reference value :  1.76272e-04
 Reference value :  1.76283e-04
 Reference value :  1.76302e-04
 Reference value :  1.76340e-04
 Reference value :  1.76410e-04
 Reference value :  1.76500e-04
 Reference value :  1.76500e-04
 Reference value :  1.76500e-04
 Reference value :  1.76500e-04
 Reference value :  1.76500e-04
 Reference value :  1.76500e-04
 Reference value :  1.76500e-04
 Reference value :  1.76500e-04
 Reference value :  1.76500e-04
 Reference value :  1.76500e-04
 Reference value :  1.76500e-04
 Reference value :  1.76501e-04
 Reference value :  1.76501e-04
 Reference value :  1.76501e-04
 Reference value :  1.76502e-04
 Reference value :  1.76503e-04
 Reference value :  1.76504e-04
 Reference value :  1.76504e-04
 Reference value :  1.76505e-04
 Reference value :  1.76506e-04
 Reference value :  1.76507e-04
 Reference value :  1.76509e-04
 Reference value :  1.76510e-04
 Reference value :  1.76511e-04
 Reference value :  1.76513e-04
 Reference value :  1.76514e-04
 Reference value :  1.76515e-04
 Reference value :  1.76517e-04
 Reference value :  1.76519e-04
 Reference value :  1.76522e-04
 Reference value :  1.76529e-04
 Reference value :  1.76540e-04
 Reference value :  1.76564e-04
 Reference value :  1.76607e-04
 Reference value :  1.76689e-04
 Reference value :  1.76750e-04
 Reference value :  1.76750e-04
 Reference value :  1.76750e-04
 Reference value :  1.76750e-04
 Reference value :  1.76750e-04
 Reference value :  1.76750e-04
 Reference value :  1.76750e-04
 Reference value :  1.76750e-04
 Reference value :  1.76750e-04
 Reference value :  1.76750e-04
 Reference value :  1.76750e-04
 Reference value :  1.76750e-04
 Reference value :  1.76750e-04
 Reference value :  1.76751e-04
 Reference value :  1.76751e-04
 Reference value :  1.76751e-04
 Reference value :  1.76752e-04
 Reference value :  1.76752e-04
 Reference value :  1.76753e-04
 Reference value :  1.76754e-04
 Reference value :  1.76755e-04
 Reference value :  1.76756e-04
 Reference value :  1.76757e-04
 Reference value :  1.76758e-04
 Reference value :  1.76759e-04
 Reference value :  1.76761e-04
 Reference value :  1.76763e-04
 Reference value :  1.76766e-04
 Reference value :  1.76770e-04
 Reference value :  1.76779e-04
 Reference value :  1.76796e-04
 Reference value :  1.76829e-04
 Reference value :  1.76895e-04
 Reference value :  1.77000e-04
 Reference value :  1.77000e-04
 Reference value :  1.77000e-04
 Reference value :  1.77000e-04
 Reference value :  1.77000e-04
 Reference value :  1.77000e-04
 Reference value :  1.77000e-04
 Reference value :  1.77000e-04
 Reference value :  1.77000e-04
 Reference value :  1.77000e-04
 Reference value :  1.77000e-04
 Reference value :  1.77001e-04
 Reference value :  1.77001e-04
 Reference value :  1.77001e-04
 Reference value :  1.77002e-04
 Reference value :  1.77003e-04
 Reference value :  1.77004e-04
 Reference value :  1.77004e-04
 Reference value :  1.77005e-04
 Reference value :  1.77006e-04
 Reference value :  1.77007e-04
 Reference value :  1.77008e-04
 Reference value :  1.77009e-04
 Reference value :  1.77010e-04
 Reference value :  1.77011e-04
 Reference value :  1.77012e-04
 Reference value :  1.77014e-04
 Reference value :  1.77016e-04
 Reference value :  1.77018e-04
 Reference value :  1.77021e-04
 Reference value :  1.77022e-04
 Reference value :  1.77024e-04
 Reference value :  1.77026e-04
 Reference value :  1.77028e-04
 Reference value :  1.77030e-04
 Reference value :  1.77032e-04
 Reference value :  1.77034e-04
 Reference value :  1.77039e-04
 Reference value :  1.77044e-04
 Reference value :  1.77051e-04
 Reference value :  1.77055e-04
 Reference value :  1.77060e-04
 Reference value :  1.77066e-04
 Reference value :  1.77073e-04
 Reference value :  1.77079e-04
 Reference value :  1.77086e-04
 Reference value :  1.77098e-04
 Reference value :  1.77114e-04
 Reference value :  1.77139e-04
 Reference value :  1.77180e-04
 Reference value :  1.77245e-04
 Reference value :  1.77250e-04
 Reference value :  1.77250e-04
 Reference value :  1.77250e-04
 Reference value :  1.77250e-04
 Reference value :  1.77250e-04
 Reference value :  1.77250e-04
 Reference value :  1.77250e-04
 Reference value :  1.77250e-04
 Reference value :  1.77250e-04
 Reference value :  1.77250e-04
 Reference value :  1.77250e-04
 Reference value :  1.77250e-04
 Reference value :  1.77250e-04
 Reference value :  1.77251e-04
 Reference value :  1.77251e-04
 Reference value :  1.77251e-04
 Reference value :  1.77252e-04
 Reference value :  1.77252e-04
 Reference value :  1.77253e-04
 Reference value :  1.77254e-04
 Reference value :  1.77255e-04
 Reference value :  1.77256e-04
 Reference value :  1.77257e-04
 Reference value :  1.77258e-04
 Reference value :  1.77259e-04
 Reference value :  1.77261e-04
 Reference value :  1.77263e-04
 Reference value :  1.77266e-04
 Reference value :  1.77270e-04
 Reference value :  1.77279e-04
 Reference value :  1.77296e-04
 Reference value :  1.77330e-04
 Reference value :  1.77398e-04
 Reference value :  1.77500e-04
 Reference value :  1.77500e-04
 Reference value :  1.77500e-04
 Reference value :  1.77500e-04
 Reference value :  1.77500e-04
 Reference value :  1.77500e-04
 Reference value :  1.77500e-04
 Reference value :  1.77500e-04
 Reference value :  1.77500e-04
 Reference value :  1.77500e-04
 Reference value :  1.77500e-04
 Reference value :  1.77501e-04
 Reference value :  1.77501e-04
 Reference value :  1.77501e-04
 Reference value :  1.77502e-04
 Reference value :  1.77503e-04
 Reference value :  1.77503e-04
 Reference value :  1.77504e-04
 Reference value :  1.77505e-04
 Reference value :  1.77506e-04
 Reference value :  1.77507e-04
 Reference value :  1.77508e-04
 Reference value :  1.77510e-04
 Reference value :  1.77511e-04
 Reference value :  1.77512e-04
 Reference value :  1.77514e-04
 Reference value :  1.77515e-04
 Reference value :  1.77517e-04
 Reference value :  1.77519e-04
 Reference value :  1.77522e-04
 Reference value :  1.77527e-04
 Reference value :  1.77536e-04
 Reference value :  1.77552e-04
 Reference value :  1.77582e-04
 Reference value :  1.77637e-04
 Reference value :  1.77738e-04
 Reference value :  1.77750e-04
 Reference value :  1.77750e-04
 Reference value :  1.77750e-04
 Reference value :  1.77750e-04
 Reference value :  1.77750e-04
 Reference value :  1.77750e-04
 Reference value :  1.77750e-04
 Reference value :  1.77750e-04
 Reference value :  1.77750e-04
 Reference value :  1.77750e-04
 Reference value :  1.77750e-04
 Reference value :  1.77750e-04
 Reference value :  1.77750e-04
 Reference value :  1.77751e-04
 Reference value :  1.77751e-04
 Reference value :  1.77751e-04
 Reference value :  1.77752e-04
 Reference value :  1.77752e-04
 Reference value :  1.77753e-04
 Reference value :  1.77754e-04
 Reference value :  1.77755e-04
 Reference value :  1.77756e-04
 Reference value :  1.77757e-04
 Reference value :  1.77758e-04
 Reference value :  1.77759e-04
 Reference value :  1.77761e-04
 Reference value :  1.77762e-04
 Reference value :  1.77763e-04
 Reference value :  1.77765e-04
 Reference value :  1.77768e-04
 Reference value :  1.77771e-04
 Reference value :  1.77777e-04
 Reference value :  1.77789e-04
 Reference value :  1.77812e-04
 Reference value :  1.77854e-04
 Reference value :  1.77940e-04
 Reference value :  1.78000e-04
 Reference value :  1.78000e-04
 Reference value :  1.78000e-04
 Reference value :  1.78000e-04
 Reference value :  1.78000e-04
 Reference value :  1.78000e-04
 Reference value :  1.78000e-04
 Reference value :  1.78000e-04
 Reference value :  1.78000e-04
 Reference value :  1.78000e-04
 Reference value :  1.78000e-04
 Reference value :  1.78001e-04
 Reference value :  1.78001e-04
 Reference value :  1.78001e-04
 Reference value :  1.78002e-04
 Reference value :  1.78003e-04
 Reference value :  1.78003e-04
 Reference value :  1.78004e-04
 Reference value :  1.78005e-04
 Reference value :  1.78006e-04
 Reference value :  1.78007e-04
 Reference value :  1.78008e-04
 Reference value :  1.78009e-04
 Reference value :  1.78010e-04
 Reference value :  1.78011e-04
 Reference value :  1.78012e-04
 Reference value :  1.78014e-04
 Reference value :  1.78015e-04
 Reference value :  1.78017e-04
 Reference value :  1.78018e-04
 Reference value :  1.78020e-04
 Reference value :  1.78022e-04
 Reference value :  1.78024e-04
 Reference value :  1.78027e-04
 Reference value :  1.78030e-04
 Reference value :  1.78036e-04
 Reference value :  1.78045e-04
 Reference value :  1.78057e-04
 Reference value :  1.78069e-04
 Reference value :  1.78087e-04
 Reference value :  1.78106e-04
 Reference value :  1.78119e-04
 Reference value :  1.78132e-04
 Reference value :  1.78151e-04
 Reference value :  1.78175e-04
 Reference value :  1.78218e-04
 Reference value :  1.78250e-04
 Reference value :  1.78250e-04
 Reference value :  1.78250e-04
 Reference value :  1.78250e-04
 Reference value :  1.78250e-04
 Reference value :  1.78250e-04
 Reference value :  1.78250e-04
 Reference value :  1.78250e-04
 Reference value :  1.78250e-04
 Reference value :  1.78250e-04
 Reference value :  1.78250e-04
 Reference value :  1.78250e-04
 Reference value :  1.78250e-04
 Reference value :  1.78251e-04
 Reference value :  1.78251e-04
 Reference value :  1.78251e-04
 Reference value :  1.78252e-04
 Reference value :  1.78252e-04
 Reference value :  1.78253e-04
 Reference value :  1.78254e-04
 Reference value :  1.78255e-04
 Reference value :  1.78256e-04
 Reference value :  1.78258e-04
 Reference value :  1.78259e-04
 Reference value :  1.78261e-04
 Reference value :  1.78264e-04
 Reference value :  1.78267e-04
 Reference value :  1.78272e-04
 Reference value :  1.78282e-04
 Reference value :  1.78298e-04
 Reference value :  1.78330e-04
 Reference value :  1.78385e-04
 Reference value :  1.78494e-04
 Reference value :  1.78500e-04
No. of Data Rows : 27505
ngspice-44 done
