
Note: Compatibility modes selected: hs a


Circuit: ** sch_path: /home/audrey/cace/sar-adc-using-sky130-pdk/runs/run_2025-09-07_18-50-06/parameters/power/run_0/power_consumption.sch

option SCALE: Scale is set to 1e-06 for instance and model parameters
option SCALE: Scale is set to 1e-06 for instance and model parameters
option SCALE: Scale is set to 1e-06 for instance and model parameters
option SCALE: Scale is set to 1e-06 for instance and model parameters
Doing analysis at TEMP = 27.000000 and TNOM = 27.000000

Using KLU as Direct Linear Solver
 Reference value :  0.00000e+00
 Reference value :  2.00000e-12
 Reference value :  4.00000e-12
 Reference value :  1.60000e-11
 Reference value :  3.20000e-11
 Reference value :  6.40000e-11
 Reference value :  1.00000e-10
 Reference value :  1.06400e-10
 Reference value :  1.19200e-10
 Reference value :  1.44800e-10
 Reference value :  1.96000e-10
 Reference value :  2.98400e-10
 Reference value :  4.48181e-10
 Reference value :  7.26320e-10
 Reference value :  9.88391e-10
 Reference value :  1.41221e-09
 Reference value :  1.79564e-09
 Reference value :  2.21519e-09
 Reference value :  2.65895e-09
 Reference value :  3.18017e-09
 Reference value :  3.67977e-09
 Reference value :  4.17911e-09
 Reference value :  4.73051e-09
 Reference value :  5.36071e-09
 Reference value :  6.11095e-09
 Reference value :  7.72389e-09
 Reference value :  8.63156e-09
 Reference value :  9.64908e-09
 Reference value :  1.08261e-08
 Reference value :  1.17317e-08
 Reference value :  1.23986e-08
 Reference value :  1.31327e-08
 Reference value :  1.47996e-08
 Reference value :  1.78169e-08
 Reference value :  1.95687e-08
 Reference value :  2.14288e-08
 Reference value :  2.27127e-08
 Reference value :  2.39392e-08
 Reference value :  2.47476e-08
 Reference value :  2.77383e-08
 Reference value :  3.41253e-08
 Reference value :  3.87722e-08
 Reference value :  4.88402e-08
 Reference value :  5.55751e-08
 Reference value :  7.58453e-08
 Reference value :  9.31973e-08
 Reference value :  1.80116e-07
 Reference value :  2.50110e-07
 Reference value :  2.50170e-07
 Reference value :  2.50207e-07
 Reference value :  2.50220e-07
 Reference value :  2.50299e-07
 Reference value :  2.50393e-07
 Reference value :  2.50515e-07
 Reference value :  2.50692e-07
 Reference value :  2.50924e-07
 Reference value :  2.51317e-07
 Reference value :  2.51727e-07
 Reference value :  2.52159e-07
 Reference value :  2.52761e-07
 Reference value :  2.53532e-07
 Reference value :  2.54066e-07
 Reference value :  2.54684e-07
 Reference value :  2.55356e-07
 Reference value :  2.56182e-07
 Reference value :  2.58380e-07
 Reference value :  2.59846e-07
 Reference value :  2.66001e-07
 Reference value :  2.72806e-07
 Reference value :  3.03178e-07
 Reference value :  4.12105e-07
 Reference value :  5.00010e-07
 Reference value :  5.00030e-07
 Reference value :  5.00070e-07
 Reference value :  5.00108e-07
 Reference value :  5.00124e-07
 Reference value :  5.00220e-07
 Reference value :  5.00345e-07
 Reference value :  5.00864e-07
 Reference value :  5.01817e-07
 Reference value :  5.02776e-07
 Reference value :  5.03344e-07
 Reference value :  5.03936e-07
 Reference value :  5.04596e-07
 Reference value :  5.05511e-07
 Reference value :  5.06432e-07
 Reference value :  5.07764e-07
 Reference value :  5.08985e-07
 Reference value :  5.10312e-07
 Reference value :  5.11664e-07
 Reference value :  5.13196e-07
 Reference value :  5.14684e-07
 Reference value :  5.18527e-07
 Reference value :  5.21016e-07
 Reference value :  5.31008e-07
 Reference value :  5.60242e-07
 Reference value :  6.58234e-07
 Reference value :  7.50110e-07
 Reference value :  7.50170e-07
 Reference value :  7.50200e-07
 Reference value :  7.50224e-07
 Reference value :  7.50320e-07
 Reference value :  7.50448e-07
 Reference value :  7.50698e-07
 Reference value :  7.51020e-07
 Reference value :  7.51567e-07
 Reference value :  7.52060e-07
 Reference value :  7.52584e-07
 Reference value :  7.53359e-07
 Reference value :  7.53869e-07
 Reference value :  7.54453e-07
 Reference value :  7.55026e-07
 Reference value :  7.55632e-07
 Reference value :  7.56457e-07
 Reference value :  7.57320e-07
 Reference value :  7.59048e-07
 Reference value :  7.61343e-07
 Reference value :  7.64937e-07
 Reference value :  7.71883e-07
 Reference value :  7.85775e-07
 Reference value :  8.69126e-07
 Reference value :  1.00000e-06
 Reference value :  1.00003e-06
 Reference value :  1.00007e-06
 Reference value :  1.00010e-06
 Reference value :  1.00011e-06
 Reference value :  1.00012e-06
 Reference value :  1.00016e-06
 Reference value :  1.00022e-06
 Reference value :  1.00034e-06
 Reference value :  1.00086e-06
 Reference value :  1.00131e-06
 Reference value :  1.00182e-06
 Reference value :  1.00231e-06
 Reference value :  1.00278e-06
 Reference value :  1.00332e-06
 Reference value :  1.00390e-06
 Reference value :  1.00449e-06
 Reference value :  1.00521e-06
 Reference value :  1.00584e-06
 Reference value :  1.00651e-06
 Reference value :  1.00748e-06
 Reference value :  1.00977e-06
 Reference value :  1.01133e-06
 Reference value :  1.01279e-06
 Reference value :  1.01390e-06
 Reference value :  1.01496e-06
 Reference value :  1.01611e-06
 Reference value :  1.01716e-06
 Reference value :  1.01825e-06
 Reference value :  1.01944e-06
 Reference value :  1.02117e-06
 Reference value :  1.02294e-06
 Reference value :  1.02617e-06
 Reference value :  1.03131e-06
 Reference value :  1.03612e-06
 Reference value :  1.03986e-06
 Reference value :  1.04389e-06
 Reference value :  1.04720e-06
 Reference value :  1.05016e-06
 Reference value :  1.05333e-06
 Reference value :  1.05651e-06
 Reference value :  1.05995e-06
 Reference value :  1.06684e-06
 Reference value :  1.07992e-06
 Reference value :  1.09636e-06
 Reference value :  1.13562e-06
 Reference value :  1.18108e-06
 Reference value :  1.25010e-06
 Reference value :  1.25011e-06
 Reference value :  1.25013e-06
 Reference value :  1.25017e-06
 Reference value :  1.25020e-06
 Reference value :  1.25022e-06
 Reference value :  1.25026e-06
 Reference value :  1.25032e-06
 Reference value :  1.25045e-06
 Reference value :  1.25102e-06
 Reference value :  1.25156e-06
 Reference value :  1.25206e-06
 Reference value :  1.25258e-06
 Reference value :  1.25335e-06
 Reference value :  1.25385e-06
 Reference value :  1.25442e-06
 Reference value :  1.25511e-06
 Reference value :  1.25590e-06
 Reference value :  1.25667e-06
 Reference value :  1.25820e-06
 Reference value :  1.25989e-06
 Reference value :  1.26282e-06
 Reference value :  1.26689e-06
 Reference value :  1.27502e-06
 Reference value :  1.29129e-06
 Reference value :  1.38892e-06
 Reference value :  1.50000e-06
 Reference value :  1.50001e-06
 Reference value :  1.50003e-06
 Reference value :  1.50007e-06
 Reference value :  1.50011e-06
 Reference value :  1.50012e-06
 Reference value :  1.50022e-06
 Reference value :  1.50034e-06
 Reference value :  1.50052e-06
 Reference value :  1.50086e-06
 Reference value :  1.50131e-06
 Reference value :  1.50175e-06
 Reference value :  1.50223e-06
 Reference value :  1.50268e-06
 Reference value :  1.50322e-06
 Reference value :  1.50379e-06
 Reference value :  1.50442e-06
 Reference value :  1.50521e-06
 Reference value :  1.50604e-06
 Reference value :  1.50673e-06
 Reference value :  1.50746e-06
 Reference value :  1.50839e-06
 Reference value :  1.50937e-06
 Reference value :  1.51032e-06
 Reference value :  1.51145e-06
 Reference value :  1.51272e-06
 Reference value :  1.51518e-06
 Reference value :  1.52521e-06
 Reference value :  1.55626e-06
 Reference value :  1.59552e-06
 Reference value :  1.67404e-06
 Reference value :  1.75011e-06
 Reference value :  1.75013e-06
 Reference value :  1.75017e-06
 Reference value :  1.75020e-06
 Reference value :  1.75022e-06
 Reference value :  1.75032e-06
 Reference value :  1.75045e-06
 Reference value :  1.75101e-06
 Reference value :  1.75205e-06
 Reference value :  1.75258e-06
 Reference value :  1.75335e-06
 Reference value :  1.75386e-06
 Reference value :  1.75444e-06
 Reference value :  1.75501e-06
 Reference value :  1.75561e-06
 Reference value :  1.75646e-06
 Reference value :  1.75737e-06
 Reference value :  1.75829e-06
 Reference value :  1.75926e-06
 Reference value :  1.76065e-06
 Reference value :  1.76216e-06
 Reference value :  1.76871e-06
 Reference value :  1.77616e-06
 Reference value :  1.82084e-06
 Reference value :  1.88041e-06
 Reference value :  1.99955e-06
 Reference value :  2.00000e-06
 Reference value :  2.00001e-06
 Reference value :  2.00003e-06
 Reference value :  2.00007e-06
 Reference value :  2.00010e-06
 Reference value :  2.00012e-06
 Reference value :  2.00016e-06
 Reference value :  2.00022e-06
 Reference value :  2.00034e-06
 Reference value :  2.00052e-06
 Reference value :  2.00086e-06
 Reference value :  2.00131e-06
 Reference value :  2.00182e-06
 Reference value :  2.00231e-06
 Reference value :  2.00278e-06
 Reference value :  2.00334e-06
 Reference value :  2.00393e-06
 Reference value :  2.00457e-06
 Reference value :  2.00518e-06
 Reference value :  2.00575e-06
 Reference value :  2.00641e-06
 Reference value :  2.00726e-06
 Reference value :  2.00818e-06
 Reference value :  2.00935e-06
 Reference value :  2.01043e-06
 Reference value :  2.01147e-06
 Reference value :  2.01263e-06
 Reference value :  2.01351e-06
 Reference value :  2.01437e-06
 Reference value :  2.01535e-06
 Reference value :  2.01637e-06
 Reference value :  2.01736e-06
 Reference value :  2.01852e-06
 Reference value :  2.02157e-06
 Reference value :  2.02772e-06
 Reference value :  2.03546e-06
 Reference value :  2.07244e-06
 Reference value :  2.11351e-06
 Reference value :  2.16063e-06
 Reference value :  2.25010e-06
 Reference value :  2.25011e-06
 Reference value :  2.25017e-06
 Reference value :  2.25020e-06
 Reference value :  2.25022e-06
 Reference value :  2.25032e-06
 Reference value :  2.25070e-06
 Reference value :  2.25101e-06
 Reference value :  2.25151e-06
 Reference value :  2.25203e-06
 Reference value :  2.25252e-06
 Reference value :  2.25326e-06
 Reference value :  2.25378e-06
 Reference value :  2.25437e-06
 Reference value :  2.25496e-06
 Reference value :  2.25642e-06
 Reference value :  2.25773e-06
 Reference value :  2.26189e-06
 Reference value :  2.27195e-06
 Reference value :  2.31218e-06
 Reference value :  2.36583e-06
 Reference value :  2.47311e-06
 Reference value :  2.50001e-06
 Reference value :  2.50007e-06
 Reference value :  2.50011e-06
 Reference value :  2.50016e-06
 Reference value :  2.50034e-06
 Reference value :  2.50052e-06
 Reference value :  2.50086e-06
 Reference value :  2.50131e-06
 Reference value :  2.50175e-06
 Reference value :  2.50268e-06
 Reference value :  2.50322e-06
 Reference value :  2.50379e-06
 Reference value :  2.50442e-06
 Reference value :  2.50521e-06
 Reference value :  2.50604e-06
 Reference value :  2.50673e-06
 Reference value :  2.50746e-06
 Reference value :  2.50839e-06
 Reference value :  2.50937e-06
 Reference value :  2.51032e-06
 Reference value :  2.51145e-06
 Reference value :  2.51517e-06
 Reference value :  2.52508e-06
 Reference value :  2.53630e-06
 Reference value :  2.55552e-06
 Reference value :  2.59397e-06
 Reference value :  2.75010e-06
 Reference value :  2.75011e-06
 Reference value :  2.75013e-06
 Reference value :  2.75017e-06
 Reference value :  2.75020e-06
 Reference value :  2.75022e-06
 Reference value :  2.75032e-06
 Reference value :  2.75070e-06
 Reference value :  2.75101e-06
 Reference value :  2.75150e-06
 Reference value :  2.75202e-06
 Reference value :  2.75252e-06
 Reference value :  2.75326e-06
 Reference value :  2.75378e-06
 Reference value :  2.75437e-06
 Reference value :  2.75490e-06
 Reference value :  2.75549e-06
 Reference value :  2.75627e-06
 Reference value :  2.75712e-06
 Reference value :  2.75794e-06
 Reference value :  2.76020e-06
 Reference value :  2.76167e-06
 Reference value :  2.76712e-06
 Reference value :  2.77314e-06
 Reference value :  2.79612e-06
 Reference value :  2.87036e-06
 Reference value :  2.96633e-06
 Reference value :  3.00000e-06
 Reference value :  3.00001e-06
 Reference value :  3.00003e-06
 Reference value :  3.00010e-06
 Reference value :  3.00012e-06
 Reference value :  3.00022e-06
 Reference value :  3.00052e-06
 Reference value :  3.00086e-06
 Reference value :  3.00131e-06
 Reference value :  3.00231e-06
 Reference value :  3.00278e-06
 Reference value :  3.00334e-06
 Reference value :  3.00393e-06
 Reference value :  3.00457e-06
 Reference value :  3.00518e-06
 Reference value :  3.00575e-06
 Reference value :  3.00641e-06
 Reference value :  3.00725e-06
 Reference value :  3.00817e-06
 Reference value :  3.00935e-06
 Reference value :  3.01043e-06
 Reference value :  3.01146e-06
 Reference value :  3.01263e-06
 Reference value :  3.01351e-06
 Reference value :  3.01437e-06
 Reference value :  3.01535e-06
 Reference value :  3.01637e-06
 Reference value :  3.01736e-06
 Reference value :  3.01851e-06
 Reference value :  3.02157e-06
 Reference value :  3.02769e-06
 Reference value :  3.04747e-06
 Reference value :  3.06559e-06
 Reference value :  3.08302e-06
 Reference value :  3.09603e-06
 Reference value :  3.10730e-06
 Reference value :  3.11237e-06
 Reference value :  3.11711e-06
 Reference value :  3.12223e-06
 Reference value :  3.13186e-06
 Reference value :  3.15492e-06
 Reference value :  3.16971e-06
 Reference value :  3.19896e-06
 Reference value :  3.24046e-06
 Reference value :  3.25010e-06
 Reference value :  3.25011e-06
 Reference value :  3.25013e-06
 Reference value :  3.25020e-06
 Reference value :  3.25021e-06
 Reference value :  3.25026e-06
 Reference value :  3.25032e-06
 Reference value :  3.25045e-06
 Reference value :  3.25070e-06
 Reference value :  3.25101e-06
 Reference value :  3.25150e-06
 Reference value :  3.25202e-06
 Reference value :  3.25251e-06
 Reference value :  3.25326e-06
 Reference value :  3.25379e-06
 Reference value :  3.25439e-06
 Reference value :  3.25497e-06
 Reference value :  3.25560e-06
 Reference value :  3.25647e-06
 Reference value :  3.25770e-06
 Reference value :  3.25928e-06
 Reference value :  3.26187e-06
 Reference value :  3.26537e-06
 Reference value :  3.27238e-06
 Reference value :  3.31444e-06
 Reference value :  3.34433e-06
 Reference value :  3.37174e-06
 Reference value :  3.39056e-06
 Reference value :  3.40625e-06
 Reference value :  3.41860e-06
 Reference value :  3.43233e-06
 Reference value :  3.45272e-06
 Reference value :  3.47578e-06
 Reference value :  3.50000e-06
 Reference value :  3.50003e-06
 Reference value :  3.50007e-06
 Reference value :  3.50010e-06
 Reference value :  3.50012e-06
 Reference value :  3.50016e-06
 Reference value :  3.50022e-06
 Reference value :  3.50034e-06
 Reference value :  3.50052e-06
 Reference value :  3.50086e-06
 Reference value :  3.50131e-06
 Reference value :  3.50174e-06
 Reference value :  3.50221e-06
 Reference value :  3.50267e-06
 Reference value :  3.50320e-06
 Reference value :  3.50377e-06
 Reference value :  3.50440e-06
 Reference value :  3.50519e-06
 Reference value :  3.50601e-06
 Reference value :  3.50671e-06
 Reference value :  3.50743e-06
 Reference value :  3.50836e-06
 Reference value :  3.50933e-06
 Reference value :  3.51026e-06
 Reference value :  3.51137e-06
 Reference value :  3.51261e-06
 Reference value :  3.51508e-06
 Reference value :  3.52529e-06
 Reference value :  3.53711e-06
 Reference value :  3.55765e-06
 Reference value :  3.59874e-06
 Reference value :  3.68092e-06
 Reference value :  3.75010e-06
 Reference value :  3.75011e-06
 Reference value :  3.75013e-06
 Reference value :  3.75017e-06
 Reference value :  3.75020e-06
 Reference value :  3.75021e-06
 Reference value :  3.75022e-06
 Reference value :  3.75026e-06
 Reference value :  3.75032e-06
 Reference value :  3.75045e-06
 Reference value :  3.75070e-06
 Reference value :  3.75101e-06
 Reference value :  3.75150e-06
 Reference value :  3.75202e-06
 Reference value :  3.75251e-06
 Reference value :  3.75326e-06
 Reference value :  3.75377e-06
 Reference value :  3.75436e-06
 Reference value :  3.75489e-06
 Reference value :  3.75548e-06
 Reference value :  3.75626e-06
 Reference value :  3.75793e-06
 Reference value :  3.75893e-06
 Reference value :  3.76018e-06
 Reference value :  3.76166e-06
 Reference value :  3.76709e-06
 Reference value :  3.77310e-06
 Reference value :  3.78158e-06
 Reference value :  3.79596e-06
 Reference value :  3.82029e-06
 Reference value :  3.86894e-06
 Reference value :  4.00000e-06
 Reference value :  4.00001e-06
 Reference value :  4.00003e-06
 Reference value :  4.00007e-06
 Reference value :  4.00010e-06
 Reference value :  4.00011e-06
 Reference value :  4.00012e-06
 Reference value :  4.00022e-06
 Reference value :  4.00034e-06
 Reference value :  4.00052e-06
 Reference value :  4.00086e-06
 Reference value :  4.00131e-06
 Reference value :  4.00182e-06
 Reference value :  4.00230e-06
 Reference value :  4.00278e-06
 Reference value :  4.00334e-06
 Reference value :  4.00392e-06
 Reference value :  4.00457e-06
 Reference value :  4.00518e-06
 Reference value :  4.00576e-06
 Reference value :  4.00641e-06
 Reference value :  4.00726e-06
 Reference value :  4.00818e-06
 Reference value :  4.00935e-06
 Reference value :  4.01042e-06
 Reference value :  4.01147e-06
 Reference value :  4.01263e-06
 Reference value :  4.01350e-06
 Reference value :  4.01435e-06
 Reference value :  4.01534e-06
 Reference value :  4.01636e-06
 Reference value :  4.01735e-06
 Reference value :  4.01849e-06
 Reference value :  4.01968e-06
 Reference value :  4.02154e-06
 Reference value :  4.02356e-06
 Reference value :  4.02644e-06
 Reference value :  4.02934e-06
 Reference value :  4.03254e-06
 Reference value :  4.03470e-06
 Reference value :  4.03674e-06
 Reference value :  4.03884e-06
 Reference value :  4.04455e-06
 Reference value :  4.04840e-06
 Reference value :  4.05349e-06
 Reference value :  4.05989e-06
 Reference value :  4.06656e-06
 Reference value :  4.09632e-06
 Reference value :  4.15733e-06
 Reference value :  4.21714e-06
 Reference value :  4.25011e-06
 Reference value :  4.25013e-06
 Reference value :  4.25020e-06
 Reference value :  4.25022e-06
 Reference value :  4.25032e-06
 Reference value :  4.25045e-06
 Reference value :  4.25070e-06
 Reference value :  4.25150e-06
 Reference value :  4.25202e-06
 Reference value :  4.25251e-06
 Reference value :  4.25325e-06
 Reference value :  4.25378e-06
 Reference value :  4.25439e-06
 Reference value :  4.25497e-06
 Reference value :  4.25560e-06
 Reference value :  4.25647e-06
 Reference value :  4.25769e-06
 Reference value :  4.26184e-06
 Reference value :  4.27238e-06
 Reference value :  4.31450e-06
 Reference value :  4.48302e-06
 Reference value :  4.50001e-06
 Reference value :  4.50003e-06
 Reference value :  4.50007e-06
 Reference value :  4.50010e-06
 Reference value :  4.50012e-06
 Reference value :  4.50022e-06
 Reference value :  4.50034e-06
 Reference value :  4.50052e-06
 Reference value :  4.50086e-06
 Reference value :  4.50131e-06
 Reference value :  4.50182e-06
 Reference value :  4.50231e-06
 Reference value :  4.50278e-06
 Reference value :  4.50333e-06
 Reference value :  4.50391e-06
 Reference value :  4.50549e-06
 Reference value :  4.50638e-06
 Reference value :  4.50718e-06
 Reference value :  4.50805e-06
 Reference value :  4.50888e-06
 Reference value :  4.51087e-06
 Reference value :  4.51425e-06
 Reference value :  4.52767e-06
 Reference value :  4.58118e-06
 Reference value :  4.65254e-06
 Reference value :  4.75010e-06
 Reference value :  4.75013e-06
 Reference value :  4.75017e-06
 Reference value :  4.75021e-06
 Reference value :  4.75026e-06
 Reference value :  4.75045e-06
 Reference value :  4.75070e-06
 Reference value :  4.75150e-06
 Reference value :  4.75202e-06
 Reference value :  4.75325e-06
 Reference value :  4.75377e-06
 Reference value :  4.75490e-06
 Reference value :  4.75548e-06
 Reference value :  4.75626e-06
 Reference value :  4.75878e-06
 Reference value :  4.76412e-06
 Reference value :  4.76988e-06
 Reference value :  4.78140e-06
 Reference value :  4.80443e-06
 Reference value :  4.85051e-06
 Reference value :  5.00000e-06
 Reference value :  5.00003e-06
 Reference value :  5.00007e-06
 Reference value :  5.00010e-06
 Reference value :  5.00011e-06
 Reference value :  5.00012e-06
 Reference value :  5.00016e-06
 Reference value :  5.00022e-06
 Reference value :  5.00034e-06
 Reference value :  5.00052e-06
 Reference value :  5.00086e-06
 Reference value :  5.00182e-06
 Reference value :  5.00231e-06
 Reference value :  5.00278e-06
 Reference value :  5.00332e-06
 Reference value :  5.00449e-06
 Reference value :  5.00521e-06
 Reference value :  5.00584e-06
 Reference value :  5.00650e-06
 Reference value :  5.00747e-06
 Reference value :  5.00836e-06
 Reference value :  5.00976e-06
 Reference value :  5.01132e-06
 Reference value :  5.01278e-06
 Reference value :  5.01389e-06
 Reference value :  5.01496e-06
 Reference value :  5.01611e-06
 Reference value :  5.01715e-06
 Reference value :  5.01824e-06
 Reference value :  5.01944e-06
 Reference value :  5.02134e-06
 Reference value :  5.02307e-06
 Reference value :  5.03175e-06
 Reference value :  5.03975e-06
 Reference value :  5.04709e-06
 Reference value :  5.05497e-06
 Reference value :  5.06045e-06
 Reference value :  5.06570e-06
 Reference value :  5.07280e-06
 Reference value :  5.07996e-06
 Reference value :  5.08901e-06
 Reference value :  5.10109e-06
 Reference value :  5.11535e-06
 Reference value :  5.12518e-06
 Reference value :  5.13135e-06
 Reference value :  5.13842e-06
 Reference value :  5.14604e-06
 Reference value :  5.15457e-06
 Reference value :  5.16196e-06
 Reference value :  5.17148e-06
 Reference value :  5.22836e-06
 Reference value :  5.25010e-06
 Reference value :  5.25011e-06
 Reference value :  5.25013e-06
 Reference value :  5.25017e-06
 Reference value :  5.25020e-06
 Reference value :  5.25022e-06
 Reference value :  5.25026e-06
 Reference value :  5.25032e-06
 Reference value :  5.25045e-06
 Reference value :  5.25070e-06
 Reference value :  5.25101e-06
 Reference value :  5.25150e-06
 Reference value :  5.25202e-06
 Reference value :  5.25251e-06
 Reference value :  5.25325e-06
 Reference value :  5.25378e-06
 Reference value :  5.25439e-06
 Reference value :  5.25497e-06
 Reference value :  5.25559e-06
 Reference value :  5.25647e-06
 Reference value :  5.25767e-06
 Reference value :  5.25926e-06
 Reference value :  5.26182e-06
 Reference value :  5.27236e-06
 Reference value :  5.28642e-06
 Reference value :  5.37080e-06
 Reference value :  5.50000e-06
 Reference value :  5.50001e-06
 Reference value :  5.50007e-06
 Reference value :  5.50011e-06
 Reference value :  5.50012e-06
 Reference value :  5.50016e-06
 Reference value :  5.50022e-06
 Reference value :  5.50034e-06
 Reference value :  5.50052e-06
 Reference value :  5.50086e-06
 Reference value :  5.50131e-06
 Reference value :  5.50182e-06
 Reference value :  5.50231e-06
 Reference value :  5.50278e-06
 Reference value :  5.50333e-06
 Reference value :  5.50391e-06
 Reference value :  5.50455e-06
 Reference value :  5.50550e-06
 Reference value :  5.50639e-06
 Reference value :  5.50719e-06
 Reference value :  5.50806e-06
 Reference value :  5.50889e-06
 Reference value :  5.50983e-06
 Reference value :  5.51088e-06
 Reference value :  5.51425e-06
 Reference value :  5.52768e-06
 Reference value :  5.58120e-06
 Reference value :  5.75010e-06
 Reference value :  5.75011e-06
 Reference value :  5.75013e-06
 Reference value :  5.75017e-06
 Reference value :  5.75020e-06
 Reference value :  5.75021e-06
 Reference value :  5.75022e-06
 Reference value :  5.75026e-06
 Reference value :  5.75032e-06
 Reference value :  5.75045e-06
 Reference value :  5.75070e-06
 Reference value :  5.75101e-06
 Reference value :  5.75150e-06
 Reference value :  5.75202e-06
 Reference value :  5.75251e-06
 Reference value :  5.75325e-06
 Reference value :  5.75377e-06
 Reference value :  5.75436e-06
 Reference value :  5.75490e-06
 Reference value :  5.75548e-06
 Reference value :  5.75626e-06
 Reference value :  5.75711e-06
 Reference value :  5.76087e-06
 Reference value :  5.76411e-06
 Reference value :  5.78139e-06
 Reference value :  5.85050e-06
 Reference value :  5.94265e-06
 Reference value :  6.00000e-06
 Reference value :  6.00001e-06
 Reference value :  6.00007e-06
 Reference value :  6.00010e-06
 Reference value :  6.00012e-06
 Reference value :  6.00022e-06
 Reference value :  6.00052e-06
 Reference value :  6.00086e-06
 Reference value :  6.00131e-06
 Reference value :  6.00231e-06
 Reference value :  6.00278e-06
 Reference value :  6.00332e-06
 Reference value :  6.00449e-06
 Reference value :  6.00521e-06
 Reference value :  6.00584e-06
 Reference value :  6.00650e-06
 Reference value :  6.00837e-06
 Reference value :  6.00976e-06
 Reference value :  6.01132e-06
 Reference value :  6.01278e-06
 Reference value :  6.01389e-06
 Reference value :  6.01496e-06
 Reference value :  6.01611e-06
 Reference value :  6.01715e-06
 Reference value :  6.01824e-06
 Reference value :  6.01944e-06
 Reference value :  6.02135e-06
 Reference value :  6.02308e-06
 Reference value :  6.02653e-06
 Reference value :  6.03178e-06
 Reference value :  6.03747e-06
 Reference value :  6.04615e-06
 Reference value :  6.05487e-06
 Reference value :  6.06075e-06
 Reference value :  6.06718e-06
 Reference value :  6.07647e-06
 Reference value :  6.08667e-06
 Reference value :  6.10204e-06
 Reference value :  6.11651e-06
 Reference value :  6.15916e-06
 Reference value :  6.24657e-06
 Reference value :  6.25011e-06
 Reference value :  6.25013e-06
 Reference value :  6.25017e-06
 Reference value :  6.25021e-06
 Reference value :  6.25022e-06
 Reference value :  6.25026e-06
 Reference value :  6.25045e-06
 Reference value :  6.25070e-06
 Reference value :  6.25101e-06
 Reference value :  6.25150e-06
 Reference value :  6.25202e-06
 Reference value :  6.25251e-06
 Reference value :  6.25325e-06
 Reference value :  6.25375e-06
 Reference value :  6.25432e-06
 Reference value :  6.25493e-06
 Reference value :  6.25556e-06
 Reference value :  6.25638e-06
 Reference value :  6.25778e-06
 Reference value :  6.25922e-06
 Reference value :  6.26196e-06
 Reference value :  6.26520e-06
 Reference value :  6.27168e-06
 Reference value :  6.31058e-06
 Reference value :  6.46616e-06
 Reference value :  6.50001e-06
 Reference value :  6.50003e-06
 Reference value :  6.50007e-06
 Reference value :  6.50010e-06
 Reference value :  6.50011e-06
 Reference value :  6.50012e-06
 Reference value :  6.50016e-06
 Reference value :  6.50022e-06
 Reference value :  6.50034e-06
 Reference value :  6.50052e-06
 Reference value :  6.50086e-06
 Reference value :  6.50131e-06
 Reference value :  6.50175e-06
 Reference value :  6.50223e-06
 Reference value :  6.50268e-06
 Reference value :  6.50322e-06
 Reference value :  6.50379e-06
 Reference value :  6.50442e-06
 Reference value :  6.50521e-06
 Reference value :  6.50604e-06
 Reference value :  6.50673e-06
 Reference value :  6.50746e-06
 Reference value :  6.50840e-06
 Reference value :  6.50937e-06
 Reference value :  6.51032e-06
 Reference value :  6.51145e-06
 Reference value :  6.51271e-06
 Reference value :  6.51857e-06
 Reference value :  6.52481e-06
 Reference value :  6.53569e-06
 Reference value :  6.55419e-06
 Reference value :  6.59119e-06
 Reference value :  6.66518e-06
 Reference value :  6.75010e-06
 Reference value :  6.75011e-06
 Reference value :  6.75017e-06
 Reference value :  6.75021e-06
 Reference value :  6.75026e-06
 Reference value :  6.75032e-06
 Reference value :  6.75045e-06
 Reference value :  6.75070e-06
 Reference value :  6.75101e-06
 Reference value :  6.75150e-06
 Reference value :  6.75202e-06
 Reference value :  6.75251e-06
 Reference value :  6.75325e-06
 Reference value :  6.75377e-06
 Reference value :  6.75436e-06
 Reference value :  6.75490e-06
 Reference value :  6.75548e-06
 Reference value :  6.75627e-06
 Reference value :  6.75711e-06
 Reference value :  6.75793e-06
 Reference value :  6.75893e-06
 Reference value :  6.76017e-06
 Reference value :  6.76406e-06
 Reference value :  6.77307e-06
 Reference value :  6.79577e-06
 Reference value :  6.86691e-06
 Reference value :  7.00000e-06
 Reference value :  7.00001e-06
 Reference value :  7.00007e-06
 Reference value :  7.00010e-06
 Reference value :  7.00012e-06
 Reference value :  7.00016e-06
 Reference value :  7.00022e-06
 Reference value :  7.00034e-06
 Reference value :  7.00052e-06
 Reference value :  7.00086e-06
 Reference value :  7.00131e-06
 Reference value :  7.00182e-06
 Reference value :  7.00231e-06
 Reference value :  7.00278e-06
 Reference value :  7.00334e-06
 Reference value :  7.00393e-06
 Reference value :  7.00457e-06
 Reference value :  7.00518e-06
 Reference value :  7.00575e-06
 Reference value :  7.00641e-06
 Reference value :  7.00725e-06
 Reference value :  7.00817e-06
 Reference value :  7.00934e-06
 Reference value :  7.01042e-06
 Reference value :  7.01146e-06
 Reference value :  7.01262e-06
 Reference value :  7.01349e-06
 Reference value :  7.01433e-06
 Reference value :  7.01542e-06
 Reference value :  7.01643e-06
 Reference value :  7.01749e-06
 Reference value :  7.01870e-06
 Reference value :  7.01998e-06
 Reference value :  7.02121e-06
 Reference value :  7.02254e-06
 Reference value :  7.02639e-06
 Reference value :  7.03010e-06
 Reference value :  7.03403e-06
 Reference value :  7.03886e-06
 Reference value :  7.04478e-06
 Reference value :  7.05663e-06
 Reference value :  7.12772e-06
 Reference value :  7.20396e-06
 Reference value :  7.25011e-06
 Reference value :  7.25013e-06
 Reference value :  7.25017e-06
 Reference value :  7.25020e-06
 Reference value :  7.25022e-06
 Reference value :  7.25026e-06
 Reference value :  7.25032e-06
 Reference value :  7.25070e-06
 Reference value :  7.25101e-06
 Reference value :  7.25150e-06
 Reference value :  7.25202e-06
 Reference value :  7.25251e-06
 Reference value :  7.25325e-06
 Reference value :  7.25378e-06
 Reference value :  7.25438e-06
 Reference value :  7.25497e-06
 Reference value :  7.25559e-06
 Reference value :  7.25647e-06
 Reference value :  7.25768e-06
 Reference value :  7.25927e-06
 Reference value :  7.26182e-06
 Reference value :  7.26534e-06
 Reference value :  7.27237e-06
 Reference value :  7.28643e-06
 Reference value :  7.31455e-06
 Reference value :  7.48328e-06
 Reference value :  7.50001e-06
 Reference value :  7.50003e-06
 Reference value :  7.50007e-06
 Reference value :  7.50010e-06
 Reference value :  7.50011e-06
 Reference value :  7.50012e-06
 Reference value :  7.50016e-06
 Reference value :  7.50022e-06
 Reference value :  7.50034e-06
 Reference value :  7.50052e-06
 Reference value :  7.50086e-06
 Reference value :  7.50131e-06
 Reference value :  7.50182e-06
 Reference value :  7.50231e-06
 Reference value :  7.50278e-06
 Reference value :  7.50333e-06
 Reference value :  7.50391e-06
 Reference value :  7.50455e-06
 Reference value :  7.50549e-06
 Reference value :  7.50638e-06
 Reference value :  7.50718e-06
 Reference value :  7.50805e-06
 Reference value :  7.50888e-06
 Reference value :  7.50982e-06
 Reference value :  7.51087e-06
 Reference value :  7.51425e-06
 Reference value :  7.52765e-06
 Reference value :  7.58111e-06
 Reference value :  7.75010e-06
 Reference value :  7.75011e-06
 Reference value :  7.75013e-06
 Reference value :  7.75017e-06
 Reference value :  7.75020e-06
 Reference value :  7.75022e-06
 Reference value :  7.75032e-06
 Reference value :  7.75070e-06
 Reference value :  7.75101e-06
 Reference value :  7.75150e-06
 Reference value :  7.75202e-06
 Reference value :  7.75251e-06
 Reference value :  7.75325e-06
 Reference value :  7.75377e-06
 Reference value :  7.75436e-06
 Reference value :  7.75490e-06
 Reference value :  7.75548e-06
 Reference value :  7.75626e-06
 Reference value :  7.75710e-06
 Reference value :  7.75877e-06
 Reference value :  7.76086e-06
 Reference value :  7.76982e-06
 Reference value :  7.80420e-06
 Reference value :  7.94169e-06
 Reference value :  8.00000e-06
 Reference value :  8.00003e-06
 Reference value :  8.00007e-06
 Reference value :  8.00010e-06
 Reference value :  8.00012e-06
 Reference value :  8.00016e-06
 Reference value :  8.00022e-06
 Reference value :  8.00034e-06
 Reference value :  8.00052e-06
 Reference value :  8.00086e-06
 Reference value :  8.00131e-06
 Reference value :  8.00182e-06
 Reference value :  8.00231e-06
 Reference value :  8.00278e-06
 Reference value :  8.00332e-06
 Reference value :  8.00390e-06
 Reference value :  8.00449e-06
 Reference value :  8.00521e-06
 Reference value :  8.00584e-06
 Reference value :  8.00650e-06
 Reference value :  8.00747e-06
 Reference value :  8.00925e-06
 Reference value :  8.01026e-06
 Reference value :  8.01369e-06
 Reference value :  8.02556e-06
 Reference value :  8.07156e-06
 Reference value :  8.13259e-06
 Reference value :  8.25011e-06
 Reference value :  8.25013e-06
 Reference value :  8.25017e-06
 Reference value :  8.25020e-06
 Reference value :  8.25022e-06
 Reference value :  8.25032e-06
 Reference value :  8.25070e-06
 Reference value :  8.25101e-06
 Reference value :  8.25150e-06
 Reference value :  8.25202e-06
 Reference value :  8.25251e-06
 Reference value :  8.25325e-06
 Reference value :  8.25400e-06
 Reference value :  8.25501e-06
 Reference value :  8.25603e-06
 Reference value :  8.25697e-06
 Reference value :  8.25854e-06
 Reference value :  8.26319e-06
 Reference value :  8.27752e-06
 Reference value :  8.29664e-06
 Reference value :  8.33487e-06
 Reference value :  8.50000e-06
No. of Data Rows : 1253
ngspice-44 done
