
Note: Compatibility modes selected: hs a


Circuit: ** sch_path: /home/ece/cace/sar-adc-using-sky130-pdk/runs/run_2025-10-11_18-26-15/parameters/dnl/run_0/sar_output_dnl.sch

option SCALE: Scale is set to 1e-06 for instance and model parameters
option SCALE: Scale is set to 1e-06 for instance and model parameters
option SCALE: Scale is set to 1e-06 for instance and model parameters
option SCALE: Scale is set to 1e-06 for instance and model parameters
Doing analysis at TEMP = -40.000000 and TNOM = 27.000000

Using KLU as Direct Linear Solver
Operating point simulation skipped by 'uic',
  now using transient initial conditions.
 Reference value :  1.00000e-12
 Reference value :  1.02772e-12
 Reference value :  1.08316e-12
 Reference value :  1.19404e-12
 Reference value :  1.33848e-12
 Reference value :  1.62736e-12
 Reference value :  2.20511e-12
 Reference value :  3.05270e-12
 Reference value :  3.95893e-12
 Reference value :  5.17592e-12
 Reference value :  6.90553e-12
 Reference value :  1.00762e-11
 Reference value :  1.36001e-11
 Reference value :  2.05073e-11
 Reference value :  2.72070e-11
 Reference value :  3.63017e-11
 Reference value :  4.74632e-11
 Reference value :  6.32283e-11
 Reference value :  8.33003e-11
 Reference value :  1.00000e-10
 Reference value :  1.01369e-10
 Reference value :  1.04107e-10
 Reference value :  1.09584e-10
 Reference value :  1.20536e-10
 Reference value :  1.42442e-10
 Reference value :  1.86253e-10
 Reference value :  2.73875e-10
 Reference value :  4.25408e-10
 Reference value :  6.00132e-10
 Reference value :  8.76855e-10
 Reference value :  1.26211e-09
 Reference value :  1.65041e-09
 Reference value :  2.24396e-09
 Reference value :  2.86559e-09
 Reference value :  3.76127e-09
 Reference value :  4.60326e-09
 Reference value :  5.29277e-09
 Reference value :  6.06961e-09
 Reference value :  7.21800e-09
 Reference value :  8.29621e-09
 Reference value :  9.58233e-09
 Reference value :  1.10722e-08
 Reference value :  1.21497e-08
 Reference value :  1.32106e-08
 Reference value :  1.40905e-08
 Reference value :  1.51021e-08
 Reference value :  1.71254e-08
 Reference value :  1.98340e-08
 Reference value :  2.33422e-08
 Reference value :  2.71242e-08
 Reference value :  3.10819e-08
 Reference value :  3.49120e-08
 Reference value :  3.85845e-08
 Reference value :  4.42332e-08
 Reference value :  4.93378e-08
 Reference value :  5.74742e-08
 Reference value :  6.92950e-08
 Reference value :  8.65515e-08
 Reference value :  1.16339e-07
 Reference value :  1.59239e-07
 Reference value :  2.05220e-07
 Reference value :  2.37431e-07
 Reference value :  2.50100e-07
 Reference value :  2.50110e-07
 Reference value :  2.50130e-07
 Reference value :  2.50170e-07
 Reference value :  2.50200e-07
 Reference value :  2.50201e-07
 Reference value :  2.50202e-07
 Reference value :  2.50204e-07
 Reference value :  2.50209e-07
 Reference value :  2.50218e-07
 Reference value :  2.50236e-07
 Reference value :  2.50272e-07
 Reference value :  2.50345e-07
 Reference value :  2.50447e-07
 Reference value :  2.50593e-07
 Reference value :  2.50778e-07
 Reference value :  2.51120e-07
 Reference value :  2.51483e-07
 Reference value :  2.51986e-07
 Reference value :  2.52508e-07
 Reference value :  2.53160e-07
 Reference value :  2.53978e-07
 Reference value :  2.54665e-07
 Reference value :  2.55437e-07
 Reference value :  2.56138e-07
 Reference value :  2.56948e-07
 Reference value :  2.57729e-07
 Reference value :  2.59004e-07
 Reference value :  2.60920e-07
 Reference value :  2.62723e-07
 Reference value :  2.66030e-07
 Reference value :  2.70114e-07
 Reference value :  2.78284e-07
 Reference value :  2.94623e-07
 Reference value :  3.26610e-07
 Reference value :  3.90583e-07
 Reference value :  5.00000e-07
 Reference value :  5.00010e-07
 Reference value :  5.00030e-07
 Reference value :  5.00070e-07
 Reference value :  5.00100e-07
 Reference value :  5.00104e-07
 Reference value :  5.00113e-07
 Reference value :  5.00130e-07
 Reference value :  5.00165e-07
 Reference value :  5.00235e-07
 Reference value :  5.00364e-07
 Reference value :  5.00578e-07
 Reference value :  5.01005e-07
 Reference value :  5.01505e-07
 Reference value :  5.02036e-07
 Reference value :  5.02521e-07
 Reference value :  5.03090e-07
 Reference value :  5.03710e-07
 Reference value :  5.04475e-07
 Reference value :  5.05266e-07
 Reference value :  5.06059e-07
 Reference value :  5.07285e-07
 Reference value :  5.08435e-07
 Reference value :  5.10198e-07
 Reference value :  5.12308e-07
 Reference value :  5.13855e-07
 Reference value :  5.15569e-07
 Reference value :  5.17394e-07
 Reference value :  5.19569e-07
 Reference value :  5.21778e-07
 Reference value :  5.24134e-07
 Reference value :  5.28483e-07
 Reference value :  5.34580e-07
 Reference value :  5.42843e-07
 Reference value :  5.59369e-07
 Reference value :  5.83250e-07
 Reference value :  6.25579e-07
 Reference value :  7.10237e-07
 Reference value :  7.50100e-07
 Reference value :  7.50110e-07
 Reference value :  7.50130e-07
 Reference value :  7.50170e-07
 Reference value :  7.50200e-07
 Reference value :  7.50201e-07
 Reference value :  7.50202e-07
 Reference value :  7.50206e-07
 Reference value :  7.50212e-07
 Reference value :  7.50225e-07
 Reference value :  7.50251e-07
 Reference value :  7.50303e-07
 Reference value :  7.50407e-07
 Reference value :  7.50615e-07
 Reference value :  7.50972e-07
 Reference value :  7.51347e-07
 Reference value :  7.51825e-07
 Reference value :  7.52356e-07
 Reference value :  7.53081e-07
 Reference value :  7.53919e-07
 Reference value :  7.54680e-07
 Reference value :  7.55563e-07
 Reference value :  7.56329e-07
 Reference value :  7.57134e-07
 Reference value :  7.58019e-07
 Reference value :  7.59018e-07
 Reference value :  7.60060e-07
 Reference value :  7.61394e-07
 Reference value :  7.63079e-07
 Reference value :  7.65168e-07
 Reference value :  7.67931e-07
 Reference value :  7.71837e-07
 Reference value :  7.79649e-07
 Reference value :  7.91728e-07
 Reference value :  8.14523e-07
 Reference value :  8.60112e-07
 Reference value :  9.51291e-07
 Reference value :  1.00000e-06
 Reference value :  1.00001e-06
 Reference value :  1.00003e-06
 Reference value :  1.00007e-06
 Reference value :  1.00010e-06
 Reference value :  1.00010e-06
 Reference value :  1.00011e-06
 Reference value :  1.00013e-06
 Reference value :  1.00017e-06
 Reference value :  1.00023e-06
 Reference value :  1.00036e-06
 Reference value :  1.00058e-06
 Reference value :  1.00100e-06
 Reference value :  1.00150e-06
 Reference value :  1.00203e-06
 Reference value :  1.00254e-06
 Reference value :  1.00314e-06
 Reference value :  1.00371e-06
 Reference value :  1.00450e-06
 Reference value :  1.00523e-06
 Reference value :  1.00594e-06
 Reference value :  1.00680e-06
 Reference value :  1.00769e-06
 Reference value :  1.00851e-06
 Reference value :  1.00939e-06
 Reference value :  1.01049e-06
 Reference value :  1.01198e-06
 Reference value :  1.01394e-06
 Reference value :  1.01528e-06
 Reference value :  1.01678e-06
 Reference value :  1.01821e-06
 Reference value :  1.01962e-06
 Reference value :  1.02066e-06
 Reference value :  1.02178e-06
 Reference value :  1.02314e-06
 Reference value :  1.02463e-06
 Reference value :  1.02612e-06
 Reference value :  1.02847e-06
 Reference value :  1.03093e-06
 Reference value :  1.03586e-06
 Reference value :  1.04338e-06
 Reference value :  1.05558e-06
 Reference value :  1.07768e-06
 Reference value :  1.11851e-06
 Reference value :  1.18349e-06
 Reference value :  1.25010e-06
 Reference value :  1.25011e-06
 Reference value :  1.25013e-06
 Reference value :  1.25017e-06
 Reference value :  1.25020e-06
 Reference value :  1.25020e-06
 Reference value :  1.25020e-06
 Reference value :  1.25021e-06
 Reference value :  1.25021e-06
 Reference value :  1.25023e-06
 Reference value :  1.25025e-06
 Reference value :  1.25031e-06
 Reference value :  1.25041e-06
 Reference value :  1.25062e-06
 Reference value :  1.25098e-06
 Reference value :  1.25135e-06
 Reference value :  1.25182e-06
 Reference value :  1.25236e-06
 Reference value :  1.25304e-06
 Reference value :  1.25389e-06
 Reference value :  1.25466e-06
 Reference value :  1.25551e-06
 Reference value :  1.25641e-06
 Reference value :  1.25724e-06
 Reference value :  1.25874e-06
 Reference value :  1.26009e-06
 Reference value :  1.26221e-06
 Reference value :  1.26503e-06
 Reference value :  1.26859e-06
 Reference value :  1.27259e-06
 Reference value :  1.27715e-06
 Reference value :  1.28092e-06
 Reference value :  1.28363e-06
 Reference value :  1.28617e-06
 Reference value :  1.28884e-06
 Reference value :  1.29228e-06
 Reference value :  1.29747e-06
 Reference value :  1.30395e-06
 Reference value :  1.31387e-06
 Reference value :  1.32429e-06
 Reference value :  1.33987e-06
 Reference value :  1.35645e-06
 Reference value :  1.38445e-06
 Reference value :  1.42266e-06
 Reference value :  1.48506e-06
 Reference value :  1.50000e-06
 Reference value :  1.50001e-06
 Reference value :  1.50003e-06
 Reference value :  1.50007e-06
 Reference value :  1.50010e-06
 Reference value :  1.50010e-06
 Reference value :  1.50011e-06
 Reference value :  1.50013e-06
 Reference value :  1.50017e-06
 Reference value :  1.50023e-06
 Reference value :  1.50036e-06
 Reference value :  1.50056e-06
 Reference value :  1.50096e-06
 Reference value :  1.50146e-06
 Reference value :  1.50199e-06
 Reference value :  1.50249e-06
 Reference value :  1.50302e-06
 Reference value :  1.50358e-06
 Reference value :  1.50434e-06
 Reference value :  1.50504e-06
 Reference value :  1.50592e-06
 Reference value :  1.50696e-06
 Reference value :  1.50810e-06
 Reference value :  1.50951e-06
 Reference value :  1.51065e-06
 Reference value :  1.51186e-06
 Reference value :  1.51292e-06
 Reference value :  1.51418e-06
 Reference value :  1.51543e-06
 Reference value :  1.51687e-06
 Reference value :  1.51977e-06
 Reference value :  1.52495e-06
 Reference value :  1.53411e-06
 Reference value :  1.54347e-06
 Reference value :  1.55238e-06
 Reference value :  1.56233e-06
 Reference value :  1.56941e-06
 Reference value :  1.57615e-06
 Reference value :  1.58475e-06
 Reference value :  1.59312e-06
 Reference value :  1.60009e-06
 Reference value :  1.60769e-06
 Reference value :  1.61434e-06
 Reference value :  1.62167e-06
 Reference value :  1.63634e-06
 Reference value :  1.65301e-06
 Reference value :  1.68106e-06
 Reference value :  1.73050e-06
 Reference value :  1.75010e-06
 Reference value :  1.75011e-06
 Reference value :  1.75013e-06
 Reference value :  1.75017e-06
 Reference value :  1.75020e-06
 Reference value :  1.75020e-06
 Reference value :  1.75020e-06
 Reference value :  1.75021e-06
 Reference value :  1.75021e-06
 Reference value :  1.75023e-06
 Reference value :  1.75025e-06
 Reference value :  1.75030e-06
 Reference value :  1.75041e-06
 Reference value :  1.75062e-06
 Reference value :  1.75097e-06
 Reference value :  1.75134e-06
 Reference value :  1.75181e-06
 Reference value :  1.75234e-06
 Reference value :  1.75304e-06
 Reference value :  1.75386e-06
 Reference value :  1.75467e-06
 Reference value :  1.75557e-06
 Reference value :  1.75642e-06
 Reference value :  1.75723e-06
 Reference value :  1.75815e-06
 Reference value :  1.75918e-06
 Reference value :  1.76035e-06
 Reference value :  1.76158e-06
 Reference value :  1.76342e-06
 Reference value :  1.76549e-06
 Reference value :  1.76864e-06
 Reference value :  1.77336e-06
 Reference value :  1.78279e-06
 Reference value :  1.80165e-06
 Reference value :  1.83771e-06
 Reference value :  1.90983e-06
 Reference value :  2.00000e-06
 Reference value :  2.00001e-06
 Reference value :  2.00003e-06
 Reference value :  2.00007e-06
 Reference value :  2.00010e-06
 Reference value :  2.00010e-06
 Reference value :  2.00011e-06
 Reference value :  2.00013e-06
 Reference value :  2.00016e-06
 Reference value :  2.00023e-06
 Reference value :  2.00036e-06
 Reference value :  2.00056e-06
 Reference value :  2.00096e-06
 Reference value :  2.00145e-06
 Reference value :  2.00198e-06
 Reference value :  2.00248e-06
 Reference value :  2.00302e-06
 Reference value :  2.00358e-06
 Reference value :  2.00432e-06
 Reference value :  2.00499e-06
 Reference value :  2.00563e-06
 Reference value :  2.00631e-06
 Reference value :  2.00699e-06
 Reference value :  2.00773e-06
 Reference value :  2.00847e-06
 Reference value :  2.00931e-06
 Reference value :  2.01033e-06
 Reference value :  2.01182e-06
 Reference value :  2.01401e-06
 Reference value :  2.01544e-06
 Reference value :  2.01703e-06
 Reference value :  2.01854e-06
 Reference value :  2.01969e-06
 Reference value :  2.02079e-06
 Reference value :  2.02196e-06
 Reference value :  2.02319e-06
 Reference value :  2.02465e-06
 Reference value :  2.02601e-06
 Reference value :  2.02841e-06
 Reference value :  2.03060e-06
 Reference value :  2.03496e-06
 Reference value :  2.04259e-06
 Reference value :  2.05138e-06
 Reference value :  2.06081e-06
 Reference value :  2.06782e-06
 Reference value :  2.07157e-06
 Reference value :  2.07468e-06
 Reference value :  2.07810e-06
 Reference value :  2.08375e-06
 Reference value :  2.08994e-06
 Reference value :  2.09725e-06
 Reference value :  2.10883e-06
 Reference value :  2.12259e-06
 Reference value :  2.14795e-06
 Reference value :  2.18242e-06
 Reference value :  2.23809e-06
 Reference value :  2.25010e-06
 Reference value :  2.25011e-06
 Reference value :  2.25013e-06
 Reference value :  2.25017e-06
 Reference value :  2.25020e-06
 Reference value :  2.25020e-06
 Reference value :  2.25020e-06
 Reference value :  2.25021e-06
 Reference value :  2.25021e-06
 Reference value :  2.25023e-06
 Reference value :  2.25025e-06
 Reference value :  2.25030e-06
 Reference value :  2.25041e-06
 Reference value :  2.25062e-06
 Reference value :  2.25097e-06
 Reference value :  2.25134e-06
 Reference value :  2.25181e-06
 Reference value :  2.25234e-06
 Reference value :  2.25304e-06
 Reference value :  2.25386e-06
 Reference value :  2.25467e-06
 Reference value :  2.25557e-06
 Reference value :  2.25641e-06
 Reference value :  2.25730e-06
 Reference value :  2.25875e-06
 Reference value :  2.26013e-06
 Reference value :  2.26226e-06
 Reference value :  2.26509e-06
 Reference value :  2.26976e-06
 Reference value :  2.27909e-06
 Reference value :  2.29345e-06
 Reference value :  2.32130e-06
 Reference value :  2.36921e-06
 Reference value :  2.43041e-06
 Reference value :  2.49605e-06
 Reference value :  2.50000e-06
 Reference value :  2.50001e-06
 Reference value :  2.50003e-06
 Reference value :  2.50007e-06
 Reference value :  2.50010e-06
 Reference value :  2.50010e-06
 Reference value :  2.50011e-06
 Reference value :  2.50013e-06
 Reference value :  2.50017e-06
 Reference value :  2.50023e-06
 Reference value :  2.50036e-06
 Reference value :  2.50056e-06
 Reference value :  2.50096e-06
 Reference value :  2.50146e-06
 Reference value :  2.50199e-06
 Reference value :  2.50249e-06
 Reference value :  2.50302e-06
 Reference value :  2.50358e-06
 Reference value :  2.50434e-06
 Reference value :  2.50504e-06
 Reference value :  2.50592e-06
 Reference value :  2.50696e-06
 Reference value :  2.50809e-06
 Reference value :  2.50949e-06
 Reference value :  2.51062e-06
 Reference value :  2.51182e-06
 Reference value :  2.51288e-06
 Reference value :  2.51412e-06
 Reference value :  2.51534e-06
 Reference value :  2.51678e-06
 Reference value :  2.51964e-06
 Reference value :  2.52485e-06
 Reference value :  2.53409e-06
 Reference value :  2.55257e-06
 Reference value :  2.58830e-06
 Reference value :  2.65780e-06
 Reference value :  2.75010e-06
 Reference value :  2.75011e-06
 Reference value :  2.75013e-06
 Reference value :  2.75017e-06
 Reference value :  2.75020e-06
 Reference value :  2.75020e-06
 Reference value :  2.75020e-06
 Reference value :  2.75021e-06
 Reference value :  2.75021e-06
 Reference value :  2.75023e-06
 Reference value :  2.75025e-06
 Reference value :  2.75030e-06
 Reference value :  2.75041e-06
 Reference value :  2.75062e-06
 Reference value :  2.75097e-06
 Reference value :  2.75134e-06
 Reference value :  2.75181e-06
 Reference value :  2.75234e-06
 Reference value :  2.75304e-06
 Reference value :  2.75386e-06
 Reference value :  2.75464e-06
 Reference value :  2.75553e-06
 Reference value :  2.75638e-06
 Reference value :  2.75717e-06
 Reference value :  2.75807e-06
 Reference value :  2.75910e-06
 Reference value :  2.76096e-06
 Reference value :  2.76350e-06
 Reference value :  2.76683e-06
 Reference value :  2.77349e-06
 Reference value :  2.78681e-06
 Reference value :  2.80923e-06
 Reference value :  2.85407e-06
 Reference value :  2.94376e-06
 Reference value :  3.00000e-06
 Reference value :  3.00001e-06
 Reference value :  3.00003e-06
 Reference value :  3.00007e-06
 Reference value :  3.00010e-06
 Reference value :  3.00010e-06
 Reference value :  3.00011e-06
 Reference value :  3.00013e-06
 Reference value :  3.00016e-06
 Reference value :  3.00023e-06
 Reference value :  3.00036e-06
 Reference value :  3.00056e-06
 Reference value :  3.00096e-06
 Reference value :  3.00145e-06
 Reference value :  3.00198e-06
 Reference value :  3.00248e-06
 Reference value :  3.00302e-06
 Reference value :  3.00358e-06
 Reference value :  3.00427e-06
 Reference value :  3.00498e-06
 Reference value :  3.00575e-06
 Reference value :  3.00650e-06
 Reference value :  3.00755e-06
 Reference value :  3.00841e-06
 Reference value :  3.00931e-06
 Reference value :  3.01055e-06
 Reference value :  3.01185e-06
 Reference value :  3.01373e-06
 Reference value :  3.01589e-06
 Reference value :  3.01790e-06
 Reference value :  3.01939e-06
 Reference value :  3.02083e-06
 Reference value :  3.02240e-06
 Reference value :  3.02392e-06
 Reference value :  3.02561e-06
 Reference value :  3.02734e-06
 Reference value :  3.02975e-06
 Reference value :  3.03312e-06
 Reference value :  3.03811e-06
 Reference value :  3.04707e-06
 Reference value :  3.06027e-06
 Reference value :  3.08353e-06
 Reference value :  3.11560e-06
 Reference value :  3.14908e-06
 Reference value :  3.21605e-06
 Reference value :  3.25010e-06
 Reference value :  3.25011e-06
 Reference value :  3.25013e-06
 Reference value :  3.25017e-06
 Reference value :  3.25020e-06
 Reference value :  3.25020e-06
 Reference value :  3.25020e-06
 Reference value :  3.25021e-06
 Reference value :  3.25021e-06
 Reference value :  3.25023e-06
 Reference value :  3.25025e-06
 Reference value :  3.25031e-06
 Reference value :  3.25041e-06
 Reference value :  3.25062e-06
 Reference value :  3.25098e-06
 Reference value :  3.25135e-06
 Reference value :  3.25182e-06
 Reference value :  3.25236e-06
 Reference value :  3.25305e-06
 Reference value :  3.25388e-06
 Reference value :  3.25467e-06
 Reference value :  3.25555e-06
 Reference value :  3.25642e-06
 Reference value :  3.25729e-06
 Reference value :  3.25875e-06
 Reference value :  3.26010e-06
 Reference value :  3.26224e-06
 Reference value :  3.26506e-06
 Reference value :  3.26971e-06
 Reference value :  3.27903e-06
 Reference value :  3.29311e-06
 Reference value :  3.32054e-06
 Reference value :  3.36715e-06
 Reference value :  3.44980e-06
 Reference value :  3.50000e-06
 Reference value :  3.50001e-06
 Reference value :  3.50003e-06
 Reference value :  3.50007e-06
 Reference value :  3.50010e-06
 Reference value :  3.50010e-06
 Reference value :  3.50011e-06
 Reference value :  3.50013e-06
 Reference value :  3.50016e-06
 Reference value :  3.50023e-06
 Reference value :  3.50036e-06
 Reference value :  3.50056e-06
 Reference value :  3.50096e-06
 Reference value :  3.50145e-06
 Reference value :  3.50198e-06
 Reference value :  3.50248e-06
 Reference value :  3.50302e-06
 Reference value :  3.50358e-06
 Reference value :  3.50434e-06
 Reference value :  3.50503e-06
 Reference value :  3.50585e-06
 Reference value :  3.50690e-06
 Reference value :  3.50798e-06
 Reference value :  3.50937e-06
 Reference value :  3.51043e-06
 Reference value :  3.51159e-06
 Reference value :  3.51259e-06
 Reference value :  3.51379e-06
 Reference value :  3.51498e-06
 Reference value :  3.51638e-06
 Reference value :  3.51918e-06
 Reference value :  3.52430e-06
 Reference value :  3.53345e-06
 Reference value :  3.55175e-06
 Reference value :  3.58773e-06
 Reference value :  3.65768e-06
 Reference value :  3.75010e-06
 Reference value :  3.75011e-06
 Reference value :  3.75013e-06
 Reference value :  3.75017e-06
 Reference value :  3.75020e-06
 Reference value :  3.75020e-06
 Reference value :  3.75020e-06
 Reference value :  3.75021e-06
 Reference value :  3.75021e-06
 Reference value :  3.75023e-06
 Reference value :  3.75025e-06
 Reference value :  3.75030e-06
 Reference value :  3.75041e-06
 Reference value :  3.75062e-06
 Reference value :  3.75097e-06
 Reference value :  3.75134e-06
 Reference value :  3.75181e-06
 Reference value :  3.75234e-06
 Reference value :  3.75304e-06
 Reference value :  3.75386e-06
 Reference value :  3.75464e-06
 Reference value :  3.75551e-06
 Reference value :  3.75637e-06
 Reference value :  3.75715e-06
 Reference value :  3.75805e-06
 Reference value :  3.75907e-06
 Reference value :  3.76092e-06
 Reference value :  3.76345e-06
 Reference value :  3.76675e-06
 Reference value :  3.77334e-06
 Reference value :  3.78653e-06
 Reference value :  3.80872e-06
 Reference value :  3.85312e-06
 Reference value :  3.94191e-06
 Reference value :  4.00000e-06
 Reference value :  4.00001e-06
 Reference value :  4.00003e-06
 Reference value :  4.00007e-06
 Reference value :  4.00010e-06
 Reference value :  4.00010e-06
 Reference value :  4.00011e-06
 Reference value :  4.00013e-06
 Reference value :  4.00016e-06
 Reference value :  4.00023e-06
 Reference value :  4.00036e-06
 Reference value :  4.00056e-06
 Reference value :  4.00096e-06
 Reference value :  4.00145e-06
 Reference value :  4.00198e-06
 Reference value :  4.00248e-06
 Reference value :  4.00302e-06
 Reference value :  4.00358e-06
 Reference value :  4.00427e-06
 Reference value :  4.00498e-06
 Reference value :  4.00580e-06
 Reference value :  4.00655e-06
 Reference value :  4.00762e-06
 Reference value :  4.00850e-06
 Reference value :  4.00942e-06
 Reference value :  4.01071e-06
 Reference value :  4.01208e-06
 Reference value :  4.01403e-06
 Reference value :  4.01600e-06
 Reference value :  4.01796e-06
 Reference value :  4.01940e-06
 Reference value :  4.02075e-06
 Reference value :  4.02209e-06
 Reference value :  4.02358e-06
 Reference value :  4.02528e-06
 Reference value :  4.02696e-06
 Reference value :  4.02939e-06
 Reference value :  4.03274e-06
 Reference value :  4.03767e-06
 Reference value :  4.04670e-06
 Reference value :  4.06004e-06
 Reference value :  4.08336e-06
 Reference value :  4.10697e-06
 Reference value :  4.13201e-06
 Reference value :  4.15678e-06
 Reference value :  4.19414e-06
 Reference value :  4.24550e-06
 Reference value :  4.25010e-06
 Reference value :  4.25011e-06
 Reference value :  4.25013e-06
 Reference value :  4.25017e-06
 Reference value :  4.25020e-06
 Reference value :  4.25020e-06
 Reference value :  4.25020e-06
 Reference value :  4.25021e-06
 Reference value :  4.25021e-06
 Reference value :  4.25023e-06
 Reference value :  4.25025e-06
 Reference value :  4.25031e-06
 Reference value :  4.25041e-06
 Reference value :  4.25062e-06
 Reference value :  4.25098e-06
 Reference value :  4.25135e-06
 Reference value :  4.25182e-06
 Reference value :  4.25236e-06
 Reference value :  4.25305e-06
 Reference value :  4.25388e-06
 Reference value :  4.25467e-06
 Reference value :  4.25556e-06
 Reference value :  4.25642e-06
 Reference value :  4.25730e-06
 Reference value :  4.25875e-06
 Reference value :  4.26013e-06
 Reference value :  4.26227e-06
 Reference value :  4.26512e-06
 Reference value :  4.26969e-06
 Reference value :  4.27883e-06
 Reference value :  4.29281e-06
 Reference value :  4.31963e-06
 Reference value :  4.36565e-06
 Reference value :  4.44681e-06
 Reference value :  4.50000e-06
 Reference value :  4.50001e-06
 Reference value :  4.50003e-06
 Reference value :  4.50007e-06
 Reference value :  4.50010e-06
 Reference value :  4.50010e-06
 Reference value :  4.50011e-06
 Reference value :  4.50013e-06
 Reference value :  4.50016e-06
 Reference value :  4.50023e-06
 Reference value :  4.50036e-06
 Reference value :  4.50056e-06
 Reference value :  4.50096e-06
 Reference value :  4.50145e-06
 Reference value :  4.50198e-06
 Reference value :  4.50248e-06
 Reference value :  4.50302e-06
 Reference value :  4.50357e-06
 Reference value :  4.50434e-06
 Reference value :  4.50504e-06
 Reference value :  4.50586e-06
 Reference value :  4.50690e-06
 Reference value :  4.50799e-06
 Reference value :  4.50942e-06
 Reference value :  4.51059e-06
 Reference value :  4.51181e-06
 Reference value :  4.51304e-06
 Reference value :  4.51434e-06
 Reference value :  4.51605e-06
 Reference value :  4.51785e-06
 Reference value :  4.52114e-06
 Reference value :  4.52582e-06
 Reference value :  4.53401e-06
 Reference value :  4.54869e-06
 Reference value :  4.57373e-06
 Reference value :  4.62048e-06
 Reference value :  4.70331e-06
 Reference value :  4.75010e-06
 Reference value :  4.75011e-06
 Reference value :  4.75013e-06
 Reference value :  4.75017e-06
 Reference value :  4.75020e-06
 Reference value :  4.75020e-06
 Reference value :  4.75020e-06
 Reference value :  4.75021e-06
 Reference value :  4.75021e-06
 Reference value :  4.75023e-06
 Reference value :  4.75025e-06
 Reference value :  4.75031e-06
 Reference value :  4.75041e-06
 Reference value :  4.75062e-06
 Reference value :  4.75098e-06
 Reference value :  4.75135e-06
 Reference value :  4.75182e-06
 Reference value :  4.75236e-06
 Reference value :  4.75305e-06
 Reference value :  4.75388e-06
 Reference value :  4.75464e-06
 Reference value :  4.75550e-06
 Reference value :  4.75627e-06
 Reference value :  4.75706e-06
 Reference value :  4.75794e-06
 Reference value :  4.75894e-06
 Reference value :  4.76080e-06
 Reference value :  4.76329e-06
 Reference value :  4.76652e-06
 Reference value :  4.77256e-06
 Reference value :  4.78463e-06
 Reference value :  4.80587e-06
 Reference value :  4.84802e-06
 Reference value :  4.93234e-06
 Reference value :  5.00000e-06
 Reference value :  5.00001e-06
 Reference value :  5.00003e-06
 Reference value :  5.00007e-06
 Reference value :  5.00010e-06
 Reference value :  5.00010e-06
 Reference value :  5.00011e-06
 Reference value :  5.00013e-06
 Reference value :  5.00016e-06
 Reference value :  5.00023e-06
 Reference value :  5.00036e-06
 Reference value :  5.00056e-06
 Reference value :  5.00096e-06
 Reference value :  5.00145e-06
 Reference value :  5.00198e-06
 Reference value :  5.00248e-06
 Reference value :  5.00302e-06
 Reference value :  5.00358e-06
 Reference value :  5.00427e-06
 Reference value :  5.00499e-06
 Reference value :  5.00580e-06
 Reference value :  5.00655e-06
 Reference value :  5.00738e-06
 Reference value :  5.00814e-06
 Reference value :  5.00897e-06
 Reference value :  5.01005e-06
 Reference value :  5.01144e-06
 Reference value :  5.01373e-06
 Reference value :  5.01585e-06
 Reference value :  5.01761e-06
 Reference value :  5.01904e-06
 Reference value :  5.02041e-06
 Reference value :  5.02185e-06
 Reference value :  5.02315e-06
 Reference value :  5.02449e-06
 Reference value :  5.02603e-06
 Reference value :  5.02819e-06
 Reference value :  5.03046e-06
 Reference value :  5.03499e-06
 Reference value :  5.04106e-06
 Reference value :  5.04878e-06
 Reference value :  5.05774e-06
 Reference value :  5.06433e-06
 Reference value :  5.07165e-06
 Reference value :  5.07690e-06
 Reference value :  5.08248e-06
 Reference value :  5.08814e-06
 Reference value :  5.09464e-06
 Reference value :  5.10285e-06
 Reference value :  5.10962e-06
 Reference value :  5.11770e-06
 Reference value :  5.13300e-06
 Reference value :  5.15210e-06
 Reference value :  5.18382e-06
 Reference value :  5.21804e-06
 Reference value :  5.25010e-06
 Reference value :  5.25011e-06
 Reference value :  5.25013e-06
 Reference value :  5.25017e-06
 Reference value :  5.25020e-06
 Reference value :  5.25020e-06
 Reference value :  5.25020e-06
 Reference value :  5.25021e-06
 Reference value :  5.25021e-06
 Reference value :  5.25023e-06
 Reference value :  5.25025e-06
 Reference value :  5.25031e-06
 Reference value :  5.25041e-06
 Reference value :  5.25062e-06
 Reference value :  5.25098e-06
 Reference value :  5.25135e-06
 Reference value :  5.25182e-06
 Reference value :  5.25236e-06
 Reference value :  5.25307e-06
 Reference value :  5.25389e-06
 Reference value :  5.25459e-06
 Reference value :  5.25540e-06
 Reference value :  5.25614e-06
 Reference value :  5.25694e-06
 Reference value :  5.25812e-06
 Reference value :  5.25934e-06
 Reference value :  5.26131e-06
 Reference value :  5.26388e-06
 Reference value :  5.26735e-06
 Reference value :  5.27430e-06
 Reference value :  5.28758e-06
 Reference value :  5.31022e-06
 Reference value :  5.35552e-06
 Reference value :  5.44610e-06
 Reference value :  5.50000e-06
 Reference value :  5.50001e-06
 Reference value :  5.50003e-06
 Reference value :  5.50007e-06
 Reference value :  5.50010e-06
 Reference value :  5.50010e-06
 Reference value :  5.50011e-06
 Reference value :  5.50013e-06
 Reference value :  5.50016e-06
 Reference value :  5.50023e-06
 Reference value :  5.50036e-06
 Reference value :  5.50056e-06
 Reference value :  5.50096e-06
 Reference value :  5.50146e-06
 Reference value :  5.50198e-06
 Reference value :  5.50245e-06
 Reference value :  5.50303e-06
 Reference value :  5.50356e-06
 Reference value :  5.50423e-06
 Reference value :  5.50495e-06
 Reference value :  5.50576e-06
 Reference value :  5.50682e-06
 Reference value :  5.50789e-06
 Reference value :  5.50923e-06
 Reference value :  5.51024e-06
 Reference value :  5.51135e-06
 Reference value :  5.51234e-06
 Reference value :  5.51350e-06
 Reference value :  5.51470e-06
 Reference value :  5.51609e-06
 Reference value :  5.51888e-06
 Reference value :  5.52331e-06
 Reference value :  5.53219e-06
 Reference value :  5.54993e-06
 Reference value :  5.58425e-06
 Reference value :  5.65289e-06
 Reference value :  5.75010e-06
 Reference value :  5.75011e-06
 Reference value :  5.75013e-06
 Reference value :  5.75017e-06
 Reference value :  5.75020e-06
 Reference value :  5.75020e-06
 Reference value :  5.75020e-06
 Reference value :  5.75021e-06
 Reference value :  5.75021e-06
 Reference value :  5.75023e-06
 Reference value :  5.75025e-06
 Reference value :  5.75030e-06
 Reference value :  5.75041e-06
 Reference value :  5.75062e-06
 Reference value :  5.75097e-06
 Reference value :  5.75134e-06
 Reference value :  5.75181e-06
 Reference value :  5.75234e-06
 Reference value :  5.75304e-06
 Reference value :  5.75386e-06
 Reference value :  5.75463e-06
 Reference value :  5.75550e-06
 Reference value :  5.75635e-06
 Reference value :  5.75713e-06
 Reference value :  5.75804e-06
 Reference value :  5.75905e-06
 Reference value :  5.76013e-06
 Reference value :  5.76142e-06
 Reference value :  5.76348e-06
 Reference value :  5.76540e-06
 Reference value :  5.76866e-06
 Reference value :  5.77286e-06
 Reference value :  5.78126e-06
 Reference value :  5.79806e-06
 Reference value :  5.82917e-06
 Reference value :  5.89141e-06
 Reference value :  6.00000e-06
 Reference value :  6.00001e-06
 Reference value :  6.00003e-06
 Reference value :  6.00007e-06
 Reference value :  6.00010e-06
 Reference value :  6.00010e-06
 Reference value :  6.00011e-06
 Reference value :  6.00013e-06
 Reference value :  6.00016e-06
 Reference value :  6.00023e-06
 Reference value :  6.00036e-06
 Reference value :  6.00056e-06
 Reference value :  6.00096e-06
 Reference value :  6.00145e-06
 Reference value :  6.00198e-06
 Reference value :  6.00248e-06
 Reference value :  6.00302e-06
 Reference value :  6.00358e-06
 Reference value :  6.00432e-06
 Reference value :  6.00499e-06
 Reference value :  6.00564e-06
 Reference value :  6.00632e-06
 Reference value :  6.00701e-06
 Reference value :  6.00776e-06
 Reference value :  6.00846e-06
 Reference value :  6.00946e-06
 Reference value :  6.01050e-06
 Reference value :  6.01197e-06
 Reference value :  6.01302e-06
 Reference value :  6.01418e-06
 Reference value :  6.01543e-06
 Reference value :  6.01676e-06
 Reference value :  6.01812e-06
 Reference value :  6.01912e-06
 Reference value :  6.02004e-06
 Reference value :  6.02116e-06
 Reference value :  6.02228e-06
 Reference value :  6.02330e-06
 Reference value :  6.02466e-06
 Reference value :  6.02616e-06
 Reference value :  6.02812e-06
 Reference value :  6.03098e-06
 Reference value :  6.03589e-06
 Reference value :  6.04121e-06
 Reference value :  6.04672e-06
 Reference value :  6.05235e-06
 Reference value :  6.05799e-06
 Reference value :  6.06660e-06
 Reference value :  6.08382e-06
 Reference value :  6.09952e-06
 Reference value :  6.11521e-06
 Reference value :  6.12942e-06
 Reference value :  6.14494e-06
 Reference value :  6.16123e-06
 Reference value :  6.19380e-06
 Reference value :  6.22354e-06
 Reference value :  6.25010e-06
 Reference value :  6.25011e-06
 Reference value :  6.25013e-06
 Reference value :  6.25017e-06
 Reference value :  6.25020e-06
 Reference value :  6.25020e-06
 Reference value :  6.25020e-06
 Reference value :  6.25021e-06
 Reference value :  6.25021e-06
 Reference value :  6.25023e-06
 Reference value :  6.25025e-06
 Reference value :  6.25030e-06
 Reference value :  6.25041e-06
 Reference value :  6.25062e-06
 Reference value :  6.25097e-06
 Reference value :  6.25134e-06
 Reference value :  6.25181e-06
 Reference value :  6.25234e-06
 Reference value :  6.25304e-06
 Reference value :  6.25386e-06
 Reference value :  6.25467e-06
 Reference value :  6.25556e-06
 Reference value :  6.25642e-06
 Reference value :  6.25730e-06
 Reference value :  6.25874e-06
 Reference value :  6.26012e-06
 Reference value :  6.26224e-06
 Reference value :  6.26508e-06
 Reference value :  6.26972e-06
 Reference value :  6.27901e-06
 Reference value :  6.29307e-06
 Reference value :  6.32034e-06
 Reference value :  6.36673e-06
 Reference value :  6.44878e-06
 Reference value :  6.50000e-06
 Reference value :  6.50001e-06
 Reference value :  6.50003e-06
 Reference value :  6.50007e-06
 Reference value :  6.50010e-06
 Reference value :  6.50010e-06
 Reference value :  6.50011e-06
 Reference value :  6.50013e-06
 Reference value :  6.50016e-06
 Reference value :  6.50023e-06
 Reference value :  6.50036e-06
 Reference value :  6.50056e-06
 Reference value :  6.50096e-06
 Reference value :  6.50145e-06
 Reference value :  6.50198e-06
 Reference value :  6.50248e-06
 Reference value :  6.50302e-06
 Reference value :  6.50358e-06
 Reference value :  6.50434e-06
 Reference value :  6.50504e-06
 Reference value :  6.50585e-06
 Reference value :  6.50690e-06
 Reference value :  6.50799e-06
 Reference value :  6.50940e-06
 Reference value :  6.51047e-06
 Reference value :  6.51164e-06
 Reference value :  6.51277e-06
 Reference value :  6.51401e-06
 Reference value :  6.51547e-06
 Reference value :  6.51709e-06
 Reference value :  6.52006e-06
 Reference value :  6.52434e-06
 Reference value :  6.53228e-06
 Reference value :  6.54669e-06
 Reference value :  6.57241e-06
 Reference value :  6.62202e-06
 Reference value :  6.71201e-06
 Reference value :  6.75010e-06
 Reference value :  6.75011e-06
 Reference value :  6.75013e-06
 Reference value :  6.75017e-06
 Reference value :  6.75020e-06
 Reference value :  6.75020e-06
 Reference value :  6.75020e-06
 Reference value :  6.75021e-06
 Reference value :  6.75021e-06
 Reference value :  6.75023e-06
 Reference value :  6.75025e-06
 Reference value :  6.75031e-06
 Reference value :  6.75041e-06
 Reference value :  6.75062e-06
 Reference value :  6.75098e-06
 Reference value :  6.75135e-06
 Reference value :  6.75182e-06
 Reference value :  6.75236e-06
 Reference value :  6.75305e-06
 Reference value :  6.75389e-06
 Reference value :  6.75465e-06
 Reference value :  6.75551e-06
 Reference value :  6.75627e-06
 Reference value :  6.75707e-06
 Reference value :  6.75796e-06
 Reference value :  6.75896e-06
 Reference value :  6.76082e-06
 Reference value :  6.76331e-06
 Reference value :  6.76655e-06
 Reference value :  6.77265e-06
 Reference value :  6.78484e-06
 Reference value :  6.80592e-06
 Reference value :  6.84801e-06
 Reference value :  6.93220e-06
 Reference value :  7.00000e-06
 Reference value :  7.00001e-06
 Reference value :  7.00003e-06
 Reference value :  7.00007e-06
 Reference value :  7.00010e-06
 Reference value :  7.00010e-06
 Reference value :  7.00011e-06
 Reference value :  7.00013e-06
 Reference value :  7.00016e-06
 Reference value :  7.00023e-06
 Reference value :  7.00036e-06
 Reference value :  7.00056e-06
 Reference value :  7.00096e-06
 Reference value :  7.00145e-06
 Reference value :  7.00198e-06
 Reference value :  7.00248e-06
 Reference value :  7.00302e-06
 Reference value :  7.00358e-06
 Reference value :  7.00427e-06
 Reference value :  7.00499e-06
 Reference value :  7.00580e-06
 Reference value :  7.00655e-06
 Reference value :  7.00732e-06
 Reference value :  7.00807e-06
 Reference value :  7.00888e-06
 Reference value :  7.00993e-06
 Reference value :  7.01133e-06
 Reference value :  7.01354e-06
 Reference value :  7.01592e-06
 Reference value :  7.01770e-06
 Reference value :  7.01966e-06
 Reference value :  7.02117e-06
 Reference value :  7.02275e-06
 Reference value :  7.02445e-06
 Reference value :  7.02636e-06
 Reference value :  7.02820e-06
 Reference value :  7.03079e-06
 Reference value :  7.03455e-06
 Reference value :  7.04079e-06
 Reference value :  7.04728e-06
 Reference value :  7.05471e-06
 Reference value :  7.05989e-06
 Reference value :  7.06484e-06
 Reference value :  7.07154e-06
 Reference value :  7.07805e-06
 Reference value :  7.08769e-06
 Reference value :  7.09603e-06
 Reference value :  7.10549e-06
 Reference value :  7.12374e-06
 Reference value :  7.14510e-06
 Reference value :  7.18043e-06
 Reference value :  7.23201e-06
 Reference value :  7.25010e-06
 Reference value :  7.25011e-06
 Reference value :  7.25013e-06
 Reference value :  7.25017e-06
 Reference value :  7.25020e-06
 Reference value :  7.25020e-06
 Reference value :  7.25020e-06
 Reference value :  7.25021e-06
 Reference value :  7.25021e-06
 Reference value :  7.25023e-06
 Reference value :  7.25025e-06
 Reference value :  7.25030e-06
 Reference value :  7.25041e-06
 Reference value :  7.25062e-06
 Reference value :  7.25097e-06
 Reference value :  7.25134e-06
 Reference value :  7.25181e-06
 Reference value :  7.25234e-06
 Reference value :  7.25305e-06
 Reference value :  7.25386e-06
 Reference value :  7.25455e-06
 Reference value :  7.25534e-06
 Reference value :  7.25607e-06
 Reference value :  7.25685e-06
 Reference value :  7.25800e-06
 Reference value :  7.25919e-06
 Reference value :  7.26121e-06
 Reference value :  7.26364e-06
 Reference value :  7.26710e-06
 Reference value :  7.27402e-06
 Reference value :  7.28786e-06
 Reference value :  7.31196e-06
 Reference value :  7.36018e-06
 Reference value :  7.45660e-06
 Reference value :  7.50000e-06
 Reference value :  7.50001e-06
 Reference value :  7.50003e-06
 Reference value :  7.50007e-06
 Reference value :  7.50010e-06
 Reference value :  7.50010e-06
 Reference value :  7.50011e-06
 Reference value :  7.50013e-06
 Reference value :  7.50016e-06
 Reference value :  7.50023e-06
 Reference value :  7.50036e-06
 Reference value :  7.50056e-06
 Reference value :  7.50096e-06
 Reference value :  7.50145e-06
 Reference value :  7.50197e-06
 Reference value :  7.50244e-06
 Reference value :  7.50300e-06
 Reference value :  7.50354e-06
 Reference value :  7.50421e-06
 Reference value :  7.50492e-06
 Reference value :  7.50573e-06
 Reference value :  7.50678e-06
 Reference value :  7.50786e-06
 Reference value :  7.50940e-06
 Reference value :  7.51043e-06
 Reference value :  7.51161e-06
 Reference value :  7.51260e-06
 Reference value :  7.51380e-06
 Reference value :  7.51500e-06
 Reference value :  7.51640e-06
 Reference value :  7.51920e-06
 Reference value :  7.52404e-06
 Reference value :  7.53349e-06
 Reference value :  7.55233e-06
 Reference value :  7.58921e-06
 Reference value :  7.66299e-06
 Reference value :  7.75010e-06
 Reference value :  7.75011e-06
 Reference value :  7.75013e-06
 Reference value :  7.75017e-06
 Reference value :  7.75020e-06
 Reference value :  7.75020e-06
 Reference value :  7.75020e-06
 Reference value :  7.75021e-06
 Reference value :  7.75021e-06
 Reference value :  7.75023e-06
 Reference value :  7.75025e-06
 Reference value :  7.75030e-06
 Reference value :  7.75041e-06
 Reference value :  7.75062e-06
 Reference value :  7.75097e-06
 Reference value :  7.75134e-06
 Reference value :  7.75181e-06
 Reference value :  7.75234e-06
 Reference value :  7.75304e-06
 Reference value :  7.75386e-06
 Reference value :  7.75460e-06
 Reference value :  7.75545e-06
 Reference value :  7.75621e-06
 Reference value :  7.75699e-06
 Reference value :  7.75788e-06
 Reference value :  7.75888e-06
 Reference value :  7.75989e-06
 Reference value :  7.76123e-06
 Reference value :  7.76292e-06
 Reference value :  7.76500e-06
 Reference value :  7.76782e-06
 Reference value :  7.77171e-06
 Reference value :  7.77950e-06
 Reference value :  7.79162e-06
 Reference value :  7.81585e-06
 Reference value :  7.86430e-06
 Reference value :  7.96121e-06
 Reference value :  8.00000e-06
 Reference value :  8.00001e-06
 Reference value :  8.00003e-06
 Reference value :  8.00007e-06
 Reference value :  8.00010e-06
 Reference value :  8.00010e-06
 Reference value :  8.00011e-06
 Reference value :  8.00013e-06
 Reference value :  8.00017e-06
 Reference value :  8.00023e-06
 Reference value :  8.00036e-06
 Reference value :  8.00056e-06
 Reference value :  8.00096e-06
 Reference value :  8.00145e-06
 Reference value :  8.00197e-06
 Reference value :  8.00247e-06
 Reference value :  8.00301e-06
 Reference value :  8.00356e-06
 Reference value :  8.00429e-06
 Reference value :  8.00497e-06
 Reference value :  8.00565e-06
 Reference value :  8.00634e-06
 Reference value :  8.00704e-06
 Reference value :  8.00772e-06
 Reference value :  8.00842e-06
 Reference value :  8.00936e-06
 Reference value :  8.01033e-06
 Reference value :  8.01175e-06
 Reference value :  8.01305e-06
 Reference value :  8.01445e-06
 Reference value :  8.01602e-06
 Reference value :  8.01750e-06
 Reference value :  8.01907e-06
 Reference value :  8.02103e-06
 Reference value :  8.02305e-06
 Reference value :  8.02562e-06
 Reference value :  8.02890e-06
 Reference value :  8.03547e-06
 Reference value :  8.04372e-06
 Reference value :  8.05746e-06
 Reference value :  8.07779e-06
 Reference value :  8.09879e-06
 Reference value :  8.13614e-06
 Reference value :  8.17466e-06
 Reference value :  8.23073e-06
 Reference value :  8.25010e-06
 Reference value :  8.25011e-06
 Reference value :  8.25013e-06
 Reference value :  8.25017e-06
 Reference value :  8.25020e-06
 Reference value :  8.25020e-06
 Reference value :  8.25020e-06
 Reference value :  8.25021e-06
 Reference value :  8.25021e-06
 Reference value :  8.25023e-06
 Reference value :  8.25025e-06
 Reference value :  8.25031e-06
 Reference value :  8.25041e-06
 Reference value :  8.25062e-06
 Reference value :  8.25098e-06
 Reference value :  8.25135e-06
 Reference value :  8.25182e-06
 Reference value :  8.25236e-06
 Reference value :  8.25305e-06
 Reference value :  8.25388e-06
 Reference value :  8.25494e-06
 Reference value :  8.25600e-06
 Reference value :  8.25730e-06
 Reference value :  8.25856e-06
 Reference value :  8.26056e-06
 Reference value :  8.26266e-06
 Reference value :  8.26598e-06
 Reference value :  8.27060e-06
 Reference value :  8.27985e-06
 Reference value :  8.29836e-06
 Reference value :  8.32839e-06
 Reference value :  8.37948e-06
 Reference value :  8.47283e-06
 Reference value :  8.50000e-06
 Reference value :  8.50000e-06
 Reference value :  8.50000e-06
 Reference value :  8.50000e-06
 Reference value :  8.50000e-06
 Reference value :  8.50000e-06
 Reference value :  8.50000e-06
 Reference value :  8.50000e-06
 Reference value :  8.50000e-06
 Reference value :  8.50000e-06
 Reference value :  8.50001e-06
 Reference value :  8.50001e-06
 Reference value :  8.50002e-06
 Reference value :  8.50004e-06
 Reference value :  8.50008e-06
 Reference value :  8.50010e-06
 Reference value :  8.50010e-06
 Reference value :  8.50011e-06
 Reference value :  8.50012e-06
 Reference value :  8.50014e-06
 Reference value :  8.50018e-06
 Reference value :  8.50027e-06
 Reference value :  8.50044e-06
 Reference value :  8.50079e-06
 Reference value :  8.50129e-06
 Reference value :  8.50198e-06
 Reference value :  8.50270e-06
 Reference value :  8.50333e-06
 Reference value :  8.50398e-06
 Reference value :  8.50465e-06
 Reference value :  8.50536e-06
 Reference value :  8.50633e-06
 Reference value :  8.50734e-06
 Reference value :  8.50885e-06
 Reference value :  8.51051e-06
 Reference value :  8.51177e-06
 Reference value :  8.51318e-06
 Reference value :  8.51501e-06
 Reference value :  8.51736e-06
 Reference value :  8.51961e-06
 Reference value :  8.52410e-06
 Reference value :  8.52907e-06
 Reference value :  8.53252e-06
 Reference value :  8.53543e-06
 Reference value :  8.53815e-06
 Reference value :  8.54084e-06
 Reference value :  8.54300e-06
 Reference value :  8.54510e-06
 Reference value :  8.54734e-06
 Reference value :  8.54939e-06
 Reference value :  8.55215e-06
 Reference value :  8.55488e-06
 Reference value :  8.55771e-06
 Reference value :  8.56058e-06
 Reference value :  8.56446e-06
 Reference value :  8.57145e-06
 Reference value :  8.58013e-06
 Reference value :  8.58682e-06
 Reference value :  8.59562e-06
 Reference value :  8.60522e-06
 Reference value :  8.62191e-06
 Reference value :  8.64025e-06
 Reference value :  8.65988e-06
 Reference value :  8.68463e-06
 Reference value :  8.71443e-06
 Reference value :  8.74743e-06
 Reference value :  8.75010e-06
 Reference value :  8.75011e-06
 Reference value :  8.75013e-06
 Reference value :  8.75017e-06
 Reference value :  8.75020e-06
 Reference value :  8.75020e-06
 Reference value :  8.75020e-06
 Reference value :  8.75021e-06
 Reference value :  8.75021e-06
 Reference value :  8.75023e-06
 Reference value :  8.75025e-06
 Reference value :  8.75030e-06
 Reference value :  8.75041e-06
 Reference value :  8.75062e-06
 Reference value :  8.75098e-06
 Reference value :  8.75136e-06
 Reference value :  8.75184e-06
 Reference value :  8.75237e-06
 Reference value :  8.75302e-06
 Reference value :  8.75391e-06
 Reference value :  8.75480e-06
 Reference value :  8.75563e-06
 Reference value :  8.75652e-06
 Reference value :  8.75743e-06
 Reference value :  8.75875e-06
 Reference value :  8.76036e-06
 Reference value :  8.76236e-06
 Reference value :  8.76545e-06
 Reference value :  8.77020e-06
 Reference value :  8.77950e-06
 Reference value :  8.79409e-06
 Reference value :  8.82101e-06
 Reference value :  8.84324e-06
 Reference value :  8.85297e-06
 Reference value :  8.86114e-06
 Reference value :  8.86547e-06
 Reference value :  8.87092e-06
 Reference value :  8.87829e-06
 Reference value :  8.88572e-06
 Reference value :  8.89226e-06
 Reference value :  8.90091e-06
 Reference value :  8.91100e-06
 Reference value :  8.92805e-06
 Reference value :  8.95598e-06
 Reference value :  9.00000e-06
 Reference value :  9.00001e-06
 Reference value :  9.00003e-06
 Reference value :  9.00007e-06
 Reference value :  9.00010e-06
 Reference value :  9.00010e-06
 Reference value :  9.00011e-06
 Reference value :  9.00013e-06
 Reference value :  9.00016e-06
 Reference value :  9.00023e-06
 Reference value :  9.00036e-06
 Reference value :  9.00058e-06
 Reference value :  9.00100e-06
 Reference value :  9.00150e-06
 Reference value :  9.00203e-06
 Reference value :  9.00251e-06
 Reference value :  9.00308e-06
 Reference value :  9.00370e-06
 Reference value :  9.00446e-06
 Reference value :  9.00525e-06
 Reference value :  9.00600e-06
 Reference value :  9.00724e-06
 Reference value :  9.00838e-06
 Reference value :  9.01018e-06
 Reference value :  9.01230e-06
 Reference value :  9.01386e-06
 Reference value :  9.01558e-06
 Reference value :  9.01731e-06
 Reference value :  9.01927e-06
 Reference value :  9.02158e-06
 Reference value :  9.02377e-06
 Reference value :  9.02809e-06
 Reference value :  9.03422e-06
 Reference value :  9.04279e-06
 Reference value :  9.05992e-06
 Reference value :  9.09178e-06
 Reference value :  9.14990e-06
 Reference value :  9.25010e-06
 Reference value :  9.25011e-06
 Reference value :  9.25013e-06
 Reference value :  9.25017e-06
 Reference value :  9.25020e-06
 Reference value :  9.25020e-06
 Reference value :  9.25020e-06
 Reference value :  9.25021e-06
 Reference value :  9.25021e-06
 Reference value :  9.25023e-06
 Reference value :  9.25025e-06
 Reference value :  9.25031e-06
 Reference value :  9.25041e-06
 Reference value :  9.25062e-06
 Reference value :  9.25098e-06
 Reference value :  9.25136e-06
 Reference value :  9.25184e-06
 Reference value :  9.25237e-06
 Reference value :  9.25309e-06
 Reference value :  9.25394e-06
 Reference value :  9.25467e-06
 Reference value :  9.25553e-06
 Reference value :  9.25627e-06
 Reference value :  9.25706e-06
 Reference value :  9.25794e-06
 Reference value :  9.25893e-06
 Reference value :  9.25983e-06
 Reference value :  9.26115e-06
 Reference value :  9.26250e-06
 Reference value :  9.26451e-06
 Reference value :  9.26694e-06
 Reference value :  9.27032e-06
 Reference value :  9.27569e-06
 Reference value :  9.28284e-06
 Reference value :  9.29395e-06
 Reference value :  9.31008e-06
 Reference value :  9.33818e-06
 Reference value :  9.38473e-06
 Reference value :  9.45999e-06
 Reference value :  9.50000e-06
 Reference value :  9.50001e-06
 Reference value :  9.50003e-06
 Reference value :  9.50007e-06
 Reference value :  9.50010e-06
 Reference value :  9.50010e-06
 Reference value :  9.50011e-06
 Reference value :  9.50013e-06
 Reference value :  9.50017e-06
 Reference value :  9.50023e-06
 Reference value :  9.50036e-06
 Reference value :  9.50058e-06
 Reference value :  9.50100e-06
 Reference value :  9.50150e-06
 Reference value :  9.50203e-06
 Reference value :  9.50254e-06
 Reference value :  9.50314e-06
 Reference value :  9.50371e-06
 Reference value :  9.50450e-06
 Reference value :  9.50523e-06
 Reference value :  9.50594e-06
 Reference value :  9.50680e-06
 Reference value :  9.50769e-06
 Reference value :  9.50851e-06
 Reference value :  9.50939e-06
 Reference value :  9.51049e-06
 Reference value :  9.51199e-06
 Reference value :  9.51394e-06
 Reference value :  9.51528e-06
 Reference value :  9.51678e-06
 Reference value :  9.51821e-06
 Reference value :  9.51960e-06
 Reference value :  9.52061e-06
 Reference value :  9.52171e-06
 Reference value :  9.52304e-06
 Reference value :  9.52440e-06
 Reference value :  9.52581e-06
 Reference value :  9.52823e-06
 Reference value :  9.53042e-06
 Reference value :  9.53481e-06
 Reference value :  9.54203e-06
 Reference value :  9.55280e-06
 Reference value :  9.57398e-06
 Reference value :  9.61269e-06
 Reference value :  9.67546e-06
 Reference value :  9.72957e-06
 Reference value :  9.75010e-06
 Reference value :  9.75011e-06
 Reference value :  9.75013e-06
 Reference value :  9.75017e-06
 Reference value :  9.75020e-06
 Reference value :  9.75020e-06
 Reference value :  9.75020e-06
 Reference value :  9.75021e-06
 Reference value :  9.75021e-06
 Reference value :  9.75023e-06
 Reference value :  9.75025e-06
 Reference value :  9.75030e-06
 Reference value :  9.75041e-06
 Reference value :  9.75062e-06
 Reference value :  9.75097e-06
 Reference value :  9.75134e-06
 Reference value :  9.75181e-06
 Reference value :  9.75235e-06
 Reference value :  9.75303e-06
 Reference value :  9.75387e-06
 Reference value :  9.75467e-06
 Reference value :  9.75555e-06
 Reference value :  9.75642e-06
 Reference value :  9.75729e-06
 Reference value :  9.75875e-06
 Reference value :  9.76014e-06
 Reference value :  9.76225e-06
 Reference value :  9.76510e-06
 Reference value :  9.76974e-06
 Reference value :  9.77726e-06
 Reference value :  9.78683e-06
 Reference value :  9.80598e-06
 Reference value :  9.84001e-06
 Reference value :  9.89650e-06
 Reference value :  9.96266e-06
 Reference value :  1.00000e-05
 Reference value :  1.00000e-05
 Reference value :  1.00000e-05
 Reference value :  1.00001e-05
 Reference value :  1.00001e-05
 Reference value :  1.00001e-05
 Reference value :  1.00001e-05
 Reference value :  1.00001e-05
 Reference value :  1.00002e-05
 Reference value :  1.00002e-05
 Reference value :  1.00004e-05
 Reference value :  1.00006e-05
 Reference value :  1.00010e-05
 Reference value :  1.00015e-05
 Reference value :  1.00020e-05
 Reference value :  1.00025e-05
 Reference value :  1.00030e-05
 Reference value :  1.00036e-05
 Reference value :  1.00043e-05
 Reference value :  1.00050e-05
 Reference value :  1.00059e-05
 Reference value :  1.00070e-05
 Reference value :  1.00081e-05
 Reference value :  1.00095e-05
 Reference value :  1.00107e-05
 Reference value :  1.00119e-05
 Reference value :  1.00129e-05
 Reference value :  1.00142e-05
 Reference value :  1.00154e-05
 Reference value :  1.00169e-05
 Reference value :  1.00198e-05
 Reference value :  1.00249e-05
 Reference value :  1.00341e-05
 Reference value :  1.00524e-05
 Reference value :  1.00874e-05
 Reference value :  1.01553e-05
 Reference value :  1.02501e-05
 Reference value :  1.02501e-05
 Reference value :  1.02501e-05
 Reference value :  1.02502e-05
 Reference value :  1.02502e-05
 Reference value :  1.02502e-05
 Reference value :  1.02502e-05
 Reference value :  1.02502e-05
 Reference value :  1.02502e-05
 Reference value :  1.02502e-05
 Reference value :  1.02503e-05
 Reference value :  1.02503e-05
 Reference value :  1.02504e-05
 Reference value :  1.02506e-05
 Reference value :  1.02510e-05
 Reference value :  1.02513e-05
 Reference value :  1.02518e-05
 Reference value :  1.02523e-05
 Reference value :  1.02530e-05
 Reference value :  1.02539e-05
 Reference value :  1.02546e-05
 Reference value :  1.02555e-05
 Reference value :  1.02564e-05
 Reference value :  1.02572e-05
 Reference value :  1.02581e-05
 Reference value :  1.02591e-05
 Reference value :  1.02610e-05
 Reference value :  1.02635e-05
 Reference value :  1.02668e-05
 Reference value :  1.02735e-05
 Reference value :  1.02867e-05
 Reference value :  1.03087e-05
 Reference value :  1.03527e-05
 Reference value :  1.04407e-05
 Reference value :  1.05000e-05
 Reference value :  1.05000e-05
 Reference value :  1.05000e-05
 Reference value :  1.05001e-05
 Reference value :  1.05001e-05
 Reference value :  1.05001e-05
 Reference value :  1.05001e-05
 Reference value :  1.05001e-05
 Reference value :  1.05002e-05
 Reference value :  1.05002e-05
 Reference value :  1.05004e-05
 Reference value :  1.05006e-05
 Reference value :  1.05010e-05
 Reference value :  1.05015e-05
 Reference value :  1.05020e-05
 Reference value :  1.05025e-05
 Reference value :  1.05030e-05
 Reference value :  1.05036e-05
 Reference value :  1.05043e-05
 Reference value :  1.05050e-05
 Reference value :  1.05058e-05
 Reference value :  1.05066e-05
 Reference value :  1.05076e-05
 Reference value :  1.05085e-05
 Reference value :  1.05094e-05
 Reference value :  1.05108e-05
 Reference value :  1.05121e-05
 Reference value :  1.05141e-05
 Reference value :  1.05161e-05
 Reference value :  1.05179e-05
 Reference value :  1.05195e-05
 Reference value :  1.05211e-05
 Reference value :  1.05226e-05
 Reference value :  1.05242e-05
 Reference value :  1.05259e-05
 Reference value :  1.05278e-05
 Reference value :  1.05300e-05
 Reference value :  1.05336e-05
 Reference value :  1.05383e-05
 Reference value :  1.05427e-05
 Reference value :  1.05456e-05
 Reference value :  1.05490e-05
 Reference value :  1.05513e-05
 Reference value :  1.05538e-05
 Reference value :  1.05564e-05
 Reference value :  1.05599e-05
 Reference value :  1.05628e-05
 Reference value :  1.05658e-05
 Reference value :  1.05689e-05
 Reference value :  1.05722e-05
 Reference value :  1.05790e-05
 Reference value :  1.05869e-05
 Reference value :  1.05949e-05
 Reference value :  1.06031e-05
 Reference value :  1.06118e-05
 Reference value :  1.06274e-05
 Reference value :  1.06478e-05
 Reference value :  1.06865e-05
 Reference value :  1.07501e-05
 Reference value :  1.07501e-05
 Reference value :  1.07501e-05
 Reference value :  1.07502e-05
 Reference value :  1.07502e-05
 Reference value :  1.07502e-05
 Reference value :  1.07502e-05
 Reference value :  1.07502e-05
 Reference value :  1.07502e-05
 Reference value :  1.07502e-05
 Reference value :  1.07503e-05
 Reference value :  1.07503e-05
 Reference value :  1.07504e-05
 Reference value :  1.07506e-05
 Reference value :  1.07510e-05
 Reference value :  1.07513e-05
 Reference value :  1.07518e-05
 Reference value :  1.07523e-05
 Reference value :  1.07530e-05
 Reference value :  1.07539e-05
 Reference value :  1.07546e-05
 Reference value :  1.07554e-05
 Reference value :  1.07563e-05
 Reference value :  1.07571e-05
 Reference value :  1.07584e-05
 Reference value :  1.07597e-05
 Reference value :  1.07617e-05
 Reference value :  1.07644e-05
 Reference value :  1.07682e-05
 Reference value :  1.07757e-05
 Reference value :  1.07891e-05
 Reference value :  1.08125e-05
 Reference value :  1.08573e-05
 Reference value :  1.09468e-05
 Reference value :  1.10000e-05
 Reference value :  1.10000e-05
 Reference value :  1.10000e-05
 Reference value :  1.10001e-05
 Reference value :  1.10001e-05
 Reference value :  1.10001e-05
 Reference value :  1.10001e-05
 Reference value :  1.10001e-05
 Reference value :  1.10002e-05
 Reference value :  1.10002e-05
 Reference value :  1.10004e-05
 Reference value :  1.10006e-05
 Reference value :  1.10010e-05
 Reference value :  1.10015e-05
 Reference value :  1.10020e-05
 Reference value :  1.10025e-05
 Reference value :  1.10030e-05
 Reference value :  1.10036e-05
 Reference value :  1.10042e-05
 Reference value :  1.10049e-05
 Reference value :  1.10058e-05
 Reference value :  1.10068e-05
 Reference value :  1.10079e-05
 Reference value :  1.10094e-05
 Reference value :  1.10104e-05
 Reference value :  1.10115e-05
 Reference value :  1.10127e-05
 Reference value :  1.10141e-05
 Reference value :  1.10156e-05
 Reference value :  1.10172e-05
 Reference value :  1.10202e-05
 Reference value :  1.10255e-05
 Reference value :  1.10349e-05
 Reference value :  1.10535e-05
 Reference value :  1.10873e-05
 Reference value :  1.11549e-05
 Reference value :  1.12501e-05
 Reference value :  1.12501e-05
 Reference value :  1.12501e-05
 Reference value :  1.12502e-05
 Reference value :  1.12502e-05
 Reference value :  1.12502e-05
 Reference value :  1.12502e-05
 Reference value :  1.12502e-05
 Reference value :  1.12502e-05
 Reference value :  1.12502e-05
 Reference value :  1.12503e-05
 Reference value :  1.12503e-05
 Reference value :  1.12504e-05
 Reference value :  1.12506e-05
 Reference value :  1.12510e-05
 Reference value :  1.12513e-05
 Reference value :  1.12518e-05
 Reference value :  1.12523e-05
 Reference value :  1.12530e-05
 Reference value :  1.12539e-05
 Reference value :  1.12546e-05
 Reference value :  1.12555e-05
 Reference value :  1.12564e-05
 Reference value :  1.12572e-05
 Reference value :  1.12581e-05
 Reference value :  1.12591e-05
 Reference value :  1.12603e-05
 Reference value :  1.12615e-05
 Reference value :  1.12634e-05
 Reference value :  1.12655e-05
 Reference value :  1.12686e-05
 Reference value :  1.12733e-05
 Reference value :  1.12826e-05
 Reference value :  1.13011e-05
 Reference value :  1.13366e-05
 Reference value :  1.14077e-05
 Reference value :  1.15000e-05
 Reference value :  1.15000e-05
 Reference value :  1.15000e-05
 Reference value :  1.15001e-05
 Reference value :  1.15001e-05
 Reference value :  1.15001e-05
 Reference value :  1.15001e-05
 Reference value :  1.15001e-05
 Reference value :  1.15002e-05
 Reference value :  1.15002e-05
 Reference value :  1.15004e-05
 Reference value :  1.15006e-05
 Reference value :  1.15010e-05
 Reference value :  1.15015e-05
 Reference value :  1.15020e-05
 Reference value :  1.15025e-05
 Reference value :  1.15030e-05
 Reference value :  1.15036e-05
 Reference value :  1.15043e-05
 Reference value :  1.15050e-05
 Reference value :  1.15056e-05
 Reference value :  1.15063e-05
 Reference value :  1.15070e-05
 Reference value :  1.15077e-05
 Reference value :  1.15084e-05
 Reference value :  1.15093e-05
 Reference value :  1.15103e-05
 Reference value :  1.15119e-05
 Reference value :  1.15134e-05
 Reference value :  1.15150e-05
 Reference value :  1.15165e-05
 Reference value :  1.15179e-05
 Reference value :  1.15190e-05
 Reference value :  1.15200e-05
 Reference value :  1.15212e-05
 Reference value :  1.15223e-05
 Reference value :  1.15234e-05
 Reference value :  1.15247e-05
 Reference value :  1.15264e-05
 Reference value :  1.15282e-05
 Reference value :  1.15314e-05
 Reference value :  1.15367e-05
 Reference value :  1.15448e-05
 Reference value :  1.15593e-05
 Reference value :  1.15759e-05
 Reference value :  1.16093e-05
 Reference value :  1.16482e-05
 Reference value :  1.16857e-05
 Reference value :  1.17163e-05
 Reference value :  1.17491e-05
 Reference value :  1.17501e-05
 Reference value :  1.17501e-05
 Reference value :  1.17501e-05
 Reference value :  1.17502e-05
 Reference value :  1.17502e-05
 Reference value :  1.17502e-05
 Reference value :  1.17502e-05
 Reference value :  1.17502e-05
 Reference value :  1.17502e-05
 Reference value :  1.17502e-05
 Reference value :  1.17503e-05
 Reference value :  1.17503e-05
 Reference value :  1.17504e-05
 Reference value :  1.17506e-05
 Reference value :  1.17510e-05
 Reference value :  1.17513e-05
 Reference value :  1.17518e-05
 Reference value :  1.17523e-05
 Reference value :  1.17530e-05
 Reference value :  1.17539e-05
 Reference value :  1.17546e-05
 Reference value :  1.17555e-05
 Reference value :  1.17564e-05
 Reference value :  1.17572e-05
 Reference value :  1.17587e-05
 Reference value :  1.17600e-05
 Reference value :  1.17621e-05
 Reference value :  1.17649e-05
 Reference value :  1.17694e-05
 Reference value :  1.17782e-05
 Reference value :  1.17920e-05
 Reference value :  1.18182e-05
 Reference value :  1.18637e-05
 Reference value :  1.19439e-05
 Reference value :  1.20000e-05
 Reference value :  1.20000e-05
 Reference value :  1.20000e-05
 Reference value :  1.20001e-05
 Reference value :  1.20001e-05
 Reference value :  1.20001e-05
 Reference value :  1.20001e-05
 Reference value :  1.20001e-05
 Reference value :  1.20002e-05
 Reference value :  1.20002e-05
 Reference value :  1.20004e-05
 Reference value :  1.20006e-05
 Reference value :  1.20010e-05
 Reference value :  1.20015e-05
 Reference value :  1.20020e-05
 Reference value :  1.20025e-05
 Reference value :  1.20030e-05
 Reference value :  1.20036e-05
 Reference value :  1.20042e-05
 Reference value :  1.20049e-05
 Reference value :  1.20057e-05
 Reference value :  1.20068e-05
 Reference value :  1.20078e-05
 Reference value :  1.20093e-05
 Reference value :  1.20103e-05
 Reference value :  1.20114e-05
 Reference value :  1.20125e-05
 Reference value :  1.20137e-05
 Reference value :  1.20150e-05
 Reference value :  1.20164e-05
 Reference value :  1.20192e-05
 Reference value :  1.20247e-05
 Reference value :  1.20341e-05
 Reference value :  1.20528e-05
 Reference value :  1.20903e-05
 Reference value :  1.21653e-05
 Reference value :  1.22501e-05
 Reference value :  1.22501e-05
 Reference value :  1.22501e-05
 Reference value :  1.22502e-05
 Reference value :  1.22502e-05
 Reference value :  1.22502e-05
 Reference value :  1.22502e-05
 Reference value :  1.22502e-05
 Reference value :  1.22502e-05
 Reference value :  1.22502e-05
 Reference value :  1.22503e-05
 Reference value :  1.22503e-05
 Reference value :  1.22504e-05
 Reference value :  1.22506e-05
 Reference value :  1.22510e-05
 Reference value :  1.22513e-05
 Reference value :  1.22518e-05
 Reference value :  1.22523e-05
 Reference value :  1.22530e-05
 Reference value :  1.22539e-05
 Reference value :  1.22546e-05
 Reference value :  1.22555e-05
 Reference value :  1.22564e-05
 Reference value :  1.22572e-05
 Reference value :  1.22581e-05
 Reference value :  1.22591e-05
 Reference value :  1.22603e-05
 Reference value :  1.22616e-05
 Reference value :  1.22634e-05
 Reference value :  1.22655e-05
 Reference value :  1.22687e-05
 Reference value :  1.22733e-05
 Reference value :  1.22826e-05
 Reference value :  1.23013e-05
 Reference value :  1.23370e-05
 Reference value :  1.24085e-05
 Reference value :  1.25000e-05
 Reference value :  1.25000e-05
 Reference value :  1.25000e-05
 Reference value :  1.25001e-05
 Reference value :  1.25001e-05
 Reference value :  1.25001e-05
 Reference value :  1.25001e-05
 Reference value :  1.25001e-05
 Reference value :  1.25002e-05
 Reference value :  1.25002e-05
 Reference value :  1.25004e-05
 Reference value :  1.25006e-05
 Reference value :  1.25010e-05
 Reference value :  1.25015e-05
 Reference value :  1.25020e-05
 Reference value :  1.25025e-05
 Reference value :  1.25030e-05
 Reference value :  1.25036e-05
 Reference value :  1.25043e-05
 Reference value :  1.25050e-05
 Reference value :  1.25056e-05
 Reference value :  1.25063e-05
 Reference value :  1.25070e-05
 Reference value :  1.25077e-05
 Reference value :  1.25084e-05
 Reference value :  1.25094e-05
 Reference value :  1.25103e-05
 Reference value :  1.25120e-05
 Reference value :  1.25130e-05
 Reference value :  1.25142e-05
 Reference value :  1.25154e-05
 Reference value :  1.25168e-05
 Reference value :  1.25183e-05
 Reference value :  1.25195e-05
 Reference value :  1.25207e-05
 Reference value :  1.25219e-05
 Reference value :  1.25233e-05
 Reference value :  1.25248e-05
 Reference value :  1.25263e-05
 Reference value :  1.25286e-05
 Reference value :  1.25314e-05
 Reference value :  1.25370e-05
 Reference value :  1.25468e-05
 Reference value :  1.25612e-05
 Reference value :  1.25735e-05
 Reference value :  1.25889e-05
 Reference value :  1.26028e-05
 Reference value :  1.26146e-05
 Reference value :  1.26232e-05
 Reference value :  1.26325e-05
 Reference value :  1.26435e-05
 Reference value :  1.26538e-05
 Reference value :  1.26746e-05
 Reference value :  1.27108e-05
 Reference value :  1.27501e-05
 Reference value :  1.27501e-05
 Reference value :  1.27501e-05
 Reference value :  1.27502e-05
 Reference value :  1.27502e-05
 Reference value :  1.27502e-05
 Reference value :  1.27502e-05
 Reference value :  1.27502e-05
 Reference value :  1.27502e-05
 Reference value :  1.27502e-05
 Reference value :  1.27503e-05
 Reference value :  1.27503e-05
 Reference value :  1.27504e-05
 Reference value :  1.27506e-05
 Reference value :  1.27510e-05
 Reference value :  1.27513e-05
 Reference value :  1.27518e-05
 Reference value :  1.27523e-05
 Reference value :  1.27530e-05
 Reference value :  1.27539e-05
 Reference value :  1.27546e-05
 Reference value :  1.27555e-05
 Reference value :  1.27564e-05
 Reference value :  1.27572e-05
 Reference value :  1.27587e-05
 Reference value :  1.27600e-05
 Reference value :  1.27621e-05
 Reference value :  1.27649e-05
 Reference value :  1.27692e-05
 Reference value :  1.27779e-05
 Reference value :  1.27916e-05
 Reference value :  1.28173e-05
 Reference value :  1.28627e-05
 Reference value :  1.29521e-05
 Reference value :  1.30000e-05
 Reference value :  1.30000e-05
 Reference value :  1.30000e-05
 Reference value :  1.30001e-05
 Reference value :  1.30001e-05
 Reference value :  1.30001e-05
 Reference value :  1.30001e-05
 Reference value :  1.30001e-05
 Reference value :  1.30002e-05
 Reference value :  1.30002e-05
 Reference value :  1.30004e-05
 Reference value :  1.30006e-05
 Reference value :  1.30010e-05
 Reference value :  1.30015e-05
 Reference value :  1.30020e-05
 Reference value :  1.30024e-05
 Reference value :  1.30030e-05
 Reference value :  1.30036e-05
 Reference value :  1.30042e-05
 Reference value :  1.30049e-05
 Reference value :  1.30057e-05
 Reference value :  1.30068e-05
 Reference value :  1.30078e-05
 Reference value :  1.30092e-05
 Reference value :  1.30101e-05
 Reference value :  1.30112e-05
 Reference value :  1.30122e-05
 Reference value :  1.30134e-05
 Reference value :  1.30145e-05
 Reference value :  1.30159e-05
 Reference value :  1.30186e-05
 Reference value :  1.30239e-05
 Reference value :  1.30335e-05
 Reference value :  1.30525e-05
 Reference value :  1.30906e-05
 Reference value :  1.31667e-05
 Reference value :  1.32501e-05
 Reference value :  1.32501e-05
 Reference value :  1.32501e-05
 Reference value :  1.32502e-05
 Reference value :  1.32502e-05
 Reference value :  1.32502e-05
 Reference value :  1.32502e-05
 Reference value :  1.32502e-05
 Reference value :  1.32502e-05
 Reference value :  1.32502e-05
 Reference value :  1.32503e-05
 Reference value :  1.32503e-05
 Reference value :  1.32504e-05
 Reference value :  1.32506e-05
 Reference value :  1.32510e-05
 Reference value :  1.32513e-05
 Reference value :  1.32518e-05
 Reference value :  1.32523e-05
 Reference value :  1.32530e-05
 Reference value :  1.32539e-05
 Reference value :  1.32546e-05
 Reference value :  1.32555e-05
 Reference value :  1.32564e-05
 Reference value :  1.32571e-05
 Reference value :  1.32581e-05
 Reference value :  1.32591e-05
 Reference value :  1.32603e-05
 Reference value :  1.32615e-05
 Reference value :  1.32634e-05
 Reference value :  1.32655e-05
 Reference value :  1.32686e-05
 Reference value :  1.32732e-05
 Reference value :  1.32824e-05
 Reference value :  1.33008e-05
 Reference value :  1.33360e-05
 Reference value :  1.34064e-05
 Reference value :  1.35000e-05
 Reference value :  1.35000e-05
 Reference value :  1.35000e-05
 Reference value :  1.35001e-05
 Reference value :  1.35001e-05
 Reference value :  1.35001e-05
 Reference value :  1.35001e-05
 Reference value :  1.35001e-05
 Reference value :  1.35002e-05
 Reference value :  1.35002e-05
 Reference value :  1.35004e-05
 Reference value :  1.35006e-05
 Reference value :  1.35010e-05
 Reference value :  1.35015e-05
 Reference value :  1.35020e-05
 Reference value :  1.35025e-05
 Reference value :  1.35030e-05
 Reference value :  1.35036e-05
 Reference value :  1.35043e-05
 Reference value :  1.35050e-05
 Reference value :  1.35056e-05
 Reference value :  1.35063e-05
 Reference value :  1.35070e-05
 Reference value :  1.35077e-05
 Reference value :  1.35084e-05
 Reference value :  1.35093e-05
 Reference value :  1.35103e-05
 Reference value :  1.35119e-05
 Reference value :  1.35130e-05
 Reference value :  1.35142e-05
 Reference value :  1.35154e-05
 Reference value :  1.35169e-05
 Reference value :  1.35184e-05
 Reference value :  1.35195e-05
 Reference value :  1.35207e-05
 Reference value :  1.35219e-05
 Reference value :  1.35231e-05
 Reference value :  1.35247e-05
 Reference value :  1.35261e-05
 Reference value :  1.35285e-05
 Reference value :  1.35309e-05
 Reference value :  1.35358e-05
 Reference value :  1.35438e-05
 Reference value :  1.35517e-05
 Reference value :  1.35597e-05
 Reference value :  1.35648e-05
 Reference value :  1.35704e-05
 Reference value :  1.35767e-05
 Reference value :  1.35893e-05
 Reference value :  1.36025e-05
 Reference value :  1.36192e-05
 Reference value :  1.36306e-05
 Reference value :  1.36428e-05
 Reference value :  1.36569e-05
 Reference value :  1.36707e-05
 Reference value :  1.36929e-05
 Reference value :  1.37197e-05
 Reference value :  1.37501e-05
 Reference value :  1.37501e-05
 Reference value :  1.37501e-05
 Reference value :  1.37502e-05
 Reference value :  1.37502e-05
 Reference value :  1.37502e-05
 Reference value :  1.37502e-05
 Reference value :  1.37502e-05
 Reference value :  1.37502e-05
 Reference value :  1.37502e-05
 Reference value :  1.37503e-05
 Reference value :  1.37503e-05
 Reference value :  1.37504e-05
 Reference value :  1.37506e-05
 Reference value :  1.37510e-05
 Reference value :  1.37514e-05
 Reference value :  1.37518e-05
 Reference value :  1.37524e-05
 Reference value :  1.37531e-05
 Reference value :  1.37539e-05
 Reference value :  1.37546e-05
 Reference value :  1.37555e-05
 Reference value :  1.37564e-05
 Reference value :  1.37572e-05
 Reference value :  1.37585e-05
 Reference value :  1.37598e-05
 Reference value :  1.37619e-05
 Reference value :  1.37646e-05
 Reference value :  1.37687e-05
 Reference value :  1.37767e-05
 Reference value :  1.37900e-05
 Reference value :  1.38140e-05
 Reference value :  1.38574e-05
 Reference value :  1.39360e-05
 Reference value :  1.40000e-05
 Reference value :  1.40000e-05
 Reference value :  1.40000e-05
 Reference value :  1.40001e-05
 Reference value :  1.40001e-05
 Reference value :  1.40001e-05
 Reference value :  1.40001e-05
 Reference value :  1.40001e-05
 Reference value :  1.40002e-05
 Reference value :  1.40002e-05
 Reference value :  1.40004e-05
 Reference value :  1.40006e-05
 Reference value :  1.40010e-05
 Reference value :  1.40015e-05
 Reference value :  1.40020e-05
 Reference value :  1.40025e-05
 Reference value :  1.40030e-05
 Reference value :  1.40036e-05
 Reference value :  1.40042e-05
 Reference value :  1.40049e-05
 Reference value :  1.40058e-05
 Reference value :  1.40068e-05
 Reference value :  1.40079e-05
 Reference value :  1.40092e-05
 Reference value :  1.40103e-05
 Reference value :  1.40114e-05
 Reference value :  1.40124e-05
 Reference value :  1.40135e-05
 Reference value :  1.40147e-05
 Reference value :  1.40161e-05
 Reference value :  1.40189e-05
 Reference value :  1.40233e-05
 Reference value :  1.40320e-05
 Reference value :  1.40496e-05
 Reference value :  1.40833e-05
 Reference value :  1.41509e-05
 Reference value :  1.42501e-05
 Reference value :  1.42501e-05
 Reference value :  1.42501e-05
 Reference value :  1.42502e-05
 Reference value :  1.42502e-05
 Reference value :  1.42502e-05
 Reference value :  1.42502e-05
 Reference value :  1.42502e-05
 Reference value :  1.42502e-05
 Reference value :  1.42502e-05
 Reference value :  1.42503e-05
 Reference value :  1.42503e-05
 Reference value :  1.42504e-05
 Reference value :  1.42506e-05
 Reference value :  1.42510e-05
 Reference value :  1.42513e-05
 Reference value :  1.42518e-05
 Reference value :  1.42523e-05
 Reference value :  1.42530e-05
 Reference value :  1.42539e-05
 Reference value :  1.42546e-05
 Reference value :  1.42555e-05
 Reference value :  1.42564e-05
 Reference value :  1.42572e-05
 Reference value :  1.42581e-05
 Reference value :  1.42591e-05
 Reference value :  1.42603e-05
 Reference value :  1.42615e-05
 Reference value :  1.42634e-05
 Reference value :  1.42655e-05
 Reference value :  1.42686e-05
 Reference value :  1.42733e-05
 Reference value :  1.42825e-05
 Reference value :  1.43011e-05
 Reference value :  1.43366e-05
 Reference value :  1.44076e-05
 Reference value :  1.45000e-05
 Reference value :  1.45000e-05
 Reference value :  1.45000e-05
 Reference value :  1.45001e-05
 Reference value :  1.45001e-05
 Reference value :  1.45001e-05
 Reference value :  1.45001e-05
 Reference value :  1.45001e-05
 Reference value :  1.45002e-05
 Reference value :  1.45002e-05
 Reference value :  1.45004e-05
 Reference value :  1.45006e-05
 Reference value :  1.45010e-05
 Reference value :  1.45015e-05
 Reference value :  1.45020e-05
 Reference value :  1.45025e-05
 Reference value :  1.45030e-05
 Reference value :  1.45036e-05
 Reference value :  1.45043e-05
 Reference value :  1.45050e-05
 Reference value :  1.45056e-05
 Reference value :  1.45063e-05
 Reference value :  1.45070e-05
 Reference value :  1.45078e-05
 Reference value :  1.45085e-05
 Reference value :  1.45095e-05
 Reference value :  1.45105e-05
 Reference value :  1.45120e-05
 Reference value :  1.45130e-05
 Reference value :  1.45142e-05
 Reference value :  1.45154e-05
 Reference value :  1.45168e-05
 Reference value :  1.45181e-05
 Reference value :  1.45191e-05
 Reference value :  1.45200e-05
 Reference value :  1.45211e-05
 Reference value :  1.45222e-05
 Reference value :  1.45233e-05
 Reference value :  1.45246e-05
 Reference value :  1.45261e-05
 Reference value :  1.45281e-05
 Reference value :  1.45309e-05
 Reference value :  1.45360e-05
 Reference value :  1.45409e-05
 Reference value :  1.45456e-05
 Reference value :  1.45501e-05
 Reference value :  1.45565e-05
 Reference value :  1.45629e-05
 Reference value :  1.45685e-05
 Reference value :  1.45745e-05
 Reference value :  1.45808e-05
 Reference value :  1.45869e-05
 Reference value :  1.45968e-05
 Reference value :  1.46079e-05
 Reference value :  1.46199e-05
 Reference value :  1.46440e-05
 Reference value :  1.46900e-05
 Reference value :  1.47501e-05
 Reference value :  1.47501e-05
 Reference value :  1.47501e-05
 Reference value :  1.47502e-05
 Reference value :  1.47502e-05
 Reference value :  1.47502e-05
 Reference value :  1.47502e-05
 Reference value :  1.47502e-05
 Reference value :  1.47502e-05
 Reference value :  1.47502e-05
 Reference value :  1.47503e-05
 Reference value :  1.47503e-05
 Reference value :  1.47504e-05
 Reference value :  1.47506e-05
 Reference value :  1.47510e-05
 Reference value :  1.47514e-05
 Reference value :  1.47518e-05
 Reference value :  1.47524e-05
 Reference value :  1.47531e-05
 Reference value :  1.47539e-05
 Reference value :  1.47547e-05
 Reference value :  1.47556e-05
 Reference value :  1.47564e-05
 Reference value :  1.47573e-05
 Reference value :  1.47587e-05
 Reference value :  1.47601e-05
 Reference value :  1.47622e-05
 Reference value :  1.47650e-05
 Reference value :  1.47697e-05
 Reference value :  1.47789e-05
 Reference value :  1.47927e-05
 Reference value :  1.48195e-05
 Reference value :  1.48648e-05
 Reference value :  1.49446e-05
 Reference value :  1.50000e-05
 Reference value :  1.50000e-05
 Reference value :  1.50000e-05
 Reference value :  1.50001e-05
 Reference value :  1.50001e-05
 Reference value :  1.50001e-05
 Reference value :  1.50001e-05
 Reference value :  1.50001e-05
 Reference value :  1.50002e-05
 Reference value :  1.50002e-05
 Reference value :  1.50004e-05
 Reference value :  1.50006e-05
 Reference value :  1.50010e-05
 Reference value :  1.50015e-05
 Reference value :  1.50020e-05
 Reference value :  1.50025e-05
 Reference value :  1.50030e-05
 Reference value :  1.50036e-05
 Reference value :  1.50043e-05
 Reference value :  1.50050e-05
 Reference value :  1.50059e-05
 Reference value :  1.50069e-05
 Reference value :  1.50080e-05
 Reference value :  1.50094e-05
 Reference value :  1.50105e-05
 Reference value :  1.50116e-05
 Reference value :  1.50128e-05
 Reference value :  1.50140e-05
 Reference value :  1.50155e-05
 Reference value :  1.50171e-05
 Reference value :  1.50201e-05
 Reference value :  1.50243e-05
 Reference value :  1.50322e-05
 Reference value :  1.50466e-05
 Reference value :  1.50722e-05
 Reference value :  1.51215e-05
 Reference value :  1.52108e-05
 Reference value :  1.52501e-05
 Reference value :  1.52501e-05
 Reference value :  1.52501e-05
 Reference value :  1.52502e-05
[...]
 Reference value :  1.66000e-04
 Reference value :  1.66000e-04
 Reference value :  1.66000e-04
 Reference value :  1.66000e-04
 Reference value :  1.66000e-04
 Reference value :  1.66000e-04
 Reference value :  1.66000e-04
 Reference value :  1.66000e-04
 Reference value :  1.66000e-04
 Reference value :  1.66000e-04
 Reference value :  1.66001e-04
 Reference value :  1.66001e-04
 Reference value :  1.66001e-04
 Reference value :  1.66002e-04
 Reference value :  1.66002e-04
 Reference value :  1.66003e-04
 Reference value :  1.66004e-04
 Reference value :  1.66004e-04
 Reference value :  1.66005e-04
 Reference value :  1.66006e-04
 Reference value :  1.66007e-04
 Reference value :  1.66008e-04
 Reference value :  1.66009e-04
 Reference value :  1.66010e-04
 Reference value :  1.66011e-04
 Reference value :  1.66012e-04
 Reference value :  1.66013e-04
 Reference value :  1.66015e-04
 Reference value :  1.66016e-04
 Reference value :  1.66019e-04
 Reference value :  1.66024e-04
 Reference value :  1.66033e-04
 Reference value :  1.66052e-04
 Reference value :  1.66091e-04
 Reference value :  1.66167e-04
 Reference value :  1.66250e-04
 Reference value :  1.66250e-04
 Reference value :  1.66250e-04
 Reference value :  1.66250e-04
 Reference value :  1.66250e-04
 Reference value :  1.66250e-04
 Reference value :  1.66250e-04
 Reference value :  1.66250e-04
 Reference value :  1.66250e-04
 Reference value :  1.66250e-04
 Reference value :  1.66250e-04
 Reference value :  1.66250e-04
 Reference value :  1.66250e-04
 Reference value :  1.66251e-04
 Reference value :  1.66251e-04
 Reference value :  1.66251e-04
 Reference value :  1.66252e-04
 Reference value :  1.66252e-04
 Reference value :  1.66253e-04
 Reference value :  1.66254e-04
 Reference value :  1.66255e-04
 Reference value :  1.66256e-04
 Reference value :  1.66256e-04
 Reference value :  1.66257e-04
 Reference value :  1.66258e-04
 Reference value :  1.66259e-04
 Reference value :  1.66260e-04
 Reference value :  1.66262e-04
 Reference value :  1.66263e-04
 Reference value :  1.66265e-04
 Reference value :  1.66269e-04
 Reference value :  1.66273e-04
 Reference value :  1.66282e-04
 Reference value :  1.66301e-04
 Reference value :  1.66336e-04
 Reference value :  1.66406e-04
 Reference value :  1.66500e-04
 Reference value :  1.66500e-04
 Reference value :  1.66500e-04
 Reference value :  1.66500e-04
 Reference value :  1.66500e-04
 Reference value :  1.66500e-04
 Reference value :  1.66500e-04
 Reference value :  1.66500e-04
 Reference value :  1.66500e-04
 Reference value :  1.66500e-04
 Reference value :  1.66500e-04
 Reference value :  1.66501e-04
 Reference value :  1.66501e-04
 Reference value :  1.66501e-04
 Reference value :  1.66502e-04
 Reference value :  1.66502e-04
 Reference value :  1.66503e-04
 Reference value :  1.66504e-04
 Reference value :  1.66504e-04
 Reference value :  1.66505e-04
 Reference value :  1.66506e-04
 Reference value :  1.66506e-04
 Reference value :  1.66507e-04
 Reference value :  1.66508e-04
 Reference value :  1.66508e-04
 Reference value :  1.66509e-04
 Reference value :  1.66510e-04
 Reference value :  1.66512e-04
 Reference value :  1.66513e-04
 Reference value :  1.66514e-04
 Reference value :  1.66515e-04
 Reference value :  1.66517e-04
 Reference value :  1.66518e-04
 Reference value :  1.66519e-04
 Reference value :  1.66521e-04
 Reference value :  1.66522e-04
 Reference value :  1.66523e-04
 Reference value :  1.66525e-04
 Reference value :  1.66526e-04
 Reference value :  1.66529e-04
 Reference value :  1.66531e-04
 Reference value :  1.66534e-04
 Reference value :  1.66537e-04
 Reference value :  1.66540e-04
 Reference value :  1.66542e-04
 Reference value :  1.66544e-04
 Reference value :  1.66546e-04
 Reference value :  1.66549e-04
 Reference value :  1.66553e-04
 Reference value :  1.66557e-04
 Reference value :  1.66564e-04
 Reference value :  1.66573e-04
 Reference value :  1.66587e-04
 Reference value :  1.66607e-04
 Reference value :  1.66638e-04
 Reference value :  1.66684e-04
 Reference value :  1.66750e-04
 Reference value :  1.66750e-04
 Reference value :  1.66750e-04
 Reference value :  1.66750e-04
 Reference value :  1.66750e-04
 Reference value :  1.66750e-04
 Reference value :  1.66750e-04
 Reference value :  1.66750e-04
 Reference value :  1.66750e-04
 Reference value :  1.66750e-04
 Reference value :  1.66750e-04
 Reference value :  1.66750e-04
 Reference value :  1.66750e-04
 Reference value :  1.66751e-04
 Reference value :  1.66751e-04
 Reference value :  1.66751e-04
 Reference value :  1.66752e-04
 Reference value :  1.66752e-04
 Reference value :  1.66753e-04
 Reference value :  1.66754e-04
 Reference value :  1.66755e-04
 Reference value :  1.66756e-04
 Reference value :  1.66756e-04
 Reference value :  1.66757e-04
 Reference value :  1.66759e-04
 Reference value :  1.66760e-04
 Reference value :  1.66762e-04
 Reference value :  1.66765e-04
 Reference value :  1.66770e-04
 Reference value :  1.66779e-04
 Reference value :  1.66793e-04
 Reference value :  1.66820e-04
 Reference value :  1.66865e-04
 Reference value :  1.66946e-04
 Reference value :  1.67000e-04
 Reference value :  1.67000e-04
 Reference value :  1.67000e-04
 Reference value :  1.67000e-04
 Reference value :  1.67000e-04
 Reference value :  1.67000e-04
 Reference value :  1.67000e-04
 Reference value :  1.67000e-04
 Reference value :  1.67000e-04
 Reference value :  1.67000e-04
 Reference value :  1.67000e-04
 Reference value :  1.67001e-04
 Reference value :  1.67001e-04
 Reference value :  1.67001e-04
 Reference value :  1.67002e-04
 Reference value :  1.67002e-04
 Reference value :  1.67003e-04
 Reference value :  1.67004e-04
 Reference value :  1.67004e-04
 Reference value :  1.67005e-04
 Reference value :  1.67006e-04
 Reference value :  1.67007e-04
 Reference value :  1.67008e-04
 Reference value :  1.67009e-04
 Reference value :  1.67011e-04
 Reference value :  1.67012e-04
 Reference value :  1.67013e-04
 Reference value :  1.67014e-04
 Reference value :  1.67016e-04
 Reference value :  1.67018e-04
 Reference value :  1.67021e-04
 Reference value :  1.67026e-04
 Reference value :  1.67034e-04
 Reference value :  1.67049e-04
 Reference value :  1.67074e-04
 Reference value :  1.67120e-04
 Reference value :  1.67203e-04
 Reference value :  1.67250e-04
 Reference value :  1.67250e-04
 Reference value :  1.67250e-04
 Reference value :  1.67250e-04
 Reference value :  1.67250e-04
 Reference value :  1.67250e-04
 Reference value :  1.67250e-04
 Reference value :  1.67250e-04
 Reference value :  1.67250e-04
 Reference value :  1.67250e-04
 Reference value :  1.67250e-04
 Reference value :  1.67250e-04
 Reference value :  1.67250e-04
 Reference value :  1.67251e-04
 Reference value :  1.67251e-04
 Reference value :  1.67251e-04
 Reference value :  1.67252e-04
 Reference value :  1.67252e-04
 Reference value :  1.67253e-04
 Reference value :  1.67254e-04
 Reference value :  1.67255e-04
 Reference value :  1.67256e-04
 Reference value :  1.67256e-04
 Reference value :  1.67257e-04
 Reference value :  1.67258e-04
 Reference value :  1.67259e-04
 Reference value :  1.67261e-04
 Reference value :  1.67263e-04
 Reference value :  1.67267e-04
 Reference value :  1.67273e-04
 Reference value :  1.67285e-04
 Reference value :  1.67306e-04
 Reference value :  1.67348e-04
 Reference value :  1.67433e-04
 Reference value :  1.67500e-04
 Reference value :  1.67500e-04
 Reference value :  1.67500e-04
 Reference value :  1.67500e-04
 Reference value :  1.67500e-04
 Reference value :  1.67500e-04
 Reference value :  1.67500e-04
 Reference value :  1.67500e-04
 Reference value :  1.67500e-04
 Reference value :  1.67500e-04
 Reference value :  1.67500e-04
 Reference value :  1.67501e-04
 Reference value :  1.67501e-04
 Reference value :  1.67501e-04
 Reference value :  1.67502e-04
 Reference value :  1.67502e-04
 Reference value :  1.67503e-04
 Reference value :  1.67504e-04
 Reference value :  1.67504e-04
 Reference value :  1.67505e-04
 Reference value :  1.67506e-04
 Reference value :  1.67507e-04
 Reference value :  1.67507e-04
 Reference value :  1.67508e-04
 Reference value :  1.67509e-04
 Reference value :  1.67510e-04
 Reference value :  1.67511e-04
 Reference value :  1.67513e-04
 Reference value :  1.67516e-04
 Reference value :  1.67517e-04
 Reference value :  1.67519e-04
 Reference value :  1.67521e-04
 Reference value :  1.67522e-04
 Reference value :  1.67524e-04
 Reference value :  1.67526e-04
 Reference value :  1.67528e-04
 Reference value :  1.67530e-04
 Reference value :  1.67534e-04
 Reference value :  1.67542e-04
 Reference value :  1.67550e-04
 Reference value :  1.67558e-04
 Reference value :  1.67566e-04
 Reference value :  1.67576e-04
 Reference value :  1.67583e-04
 Reference value :  1.67589e-04
 Reference value :  1.67597e-04
 Reference value :  1.67605e-04
 Reference value :  1.67613e-04
 Reference value :  1.67623e-04
 Reference value :  1.67640e-04
 Reference value :  1.67661e-04
 Reference value :  1.67694e-04
 Reference value :  1.67748e-04
 Reference value :  1.67750e-04
 Reference value :  1.67750e-04
 Reference value :  1.67750e-04
 Reference value :  1.67750e-04
 Reference value :  1.67750e-04
 Reference value :  1.67750e-04
 Reference value :  1.67750e-04
 Reference value :  1.67750e-04
 Reference value :  1.67750e-04
 Reference value :  1.67750e-04
 Reference value :  1.67750e-04
 Reference value :  1.67750e-04
 Reference value :  1.67750e-04
 Reference value :  1.67751e-04
 Reference value :  1.67751e-04
 Reference value :  1.67751e-04
 Reference value :  1.67752e-04
 Reference value :  1.67752e-04
 Reference value :  1.67753e-04
 Reference value :  1.67754e-04
 Reference value :  1.67755e-04
 Reference value :  1.67755e-04
 Reference value :  1.67756e-04
 Reference value :  1.67757e-04
 Reference value :  1.67758e-04
 Reference value :  1.67759e-04
 Reference value :  1.67761e-04
 Reference value :  1.67764e-04
 Reference value :  1.67767e-04
 Reference value :  1.67774e-04
 Reference value :  1.67788e-04
 Reference value :  1.67810e-04
 Reference value :  1.67855e-04
 Reference value :  1.67945e-04
 Reference value :  1.68000e-04
 Reference value :  1.68000e-04
 Reference value :  1.68000e-04
 Reference value :  1.68000e-04
 Reference value :  1.68000e-04
 Reference value :  1.68000e-04
 Reference value :  1.68000e-04
 Reference value :  1.68000e-04
 Reference value :  1.68000e-04
 Reference value :  1.68000e-04
 Reference value :  1.68000e-04
 Reference value :  1.68001e-04
 Reference value :  1.68001e-04
 Reference value :  1.68001e-04
 Reference value :  1.68002e-04
 Reference value :  1.68002e-04
 Reference value :  1.68003e-04
 Reference value :  1.68004e-04
 Reference value :  1.68004e-04
 Reference value :  1.68005e-04
 Reference value :  1.68006e-04
 Reference value :  1.68007e-04
 Reference value :  1.68008e-04
 Reference value :  1.68009e-04
 Reference value :  1.68010e-04
 Reference value :  1.68011e-04
 Reference value :  1.68012e-04
 Reference value :  1.68014e-04
 Reference value :  1.68015e-04
 Reference value :  1.68016e-04
 Reference value :  1.68019e-04
 Reference value :  1.68024e-04
 Reference value :  1.68032e-04
 Reference value :  1.68050e-04
 Reference value :  1.68083e-04
 Reference value :  1.68151e-04
 Reference value :  1.68250e-04
 Reference value :  1.68250e-04
 Reference value :  1.68250e-04
 Reference value :  1.68250e-04
 Reference value :  1.68250e-04
 Reference value :  1.68250e-04
 Reference value :  1.68250e-04
 Reference value :  1.68250e-04
 Reference value :  1.68250e-04
 Reference value :  1.68250e-04
 Reference value :  1.68250e-04
 Reference value :  1.68250e-04
 Reference value :  1.68250e-04
 Reference value :  1.68251e-04
 Reference value :  1.68251e-04
 Reference value :  1.68251e-04
 Reference value :  1.68252e-04
 Reference value :  1.68252e-04
 Reference value :  1.68253e-04
 Reference value :  1.68254e-04
 Reference value :  1.68255e-04
 Reference value :  1.68256e-04
 Reference value :  1.68256e-04
 Reference value :  1.68257e-04
 Reference value :  1.68258e-04
 Reference value :  1.68259e-04
 Reference value :  1.68260e-04
 Reference value :  1.68261e-04
 Reference value :  1.68263e-04
 Reference value :  1.68265e-04
 Reference value :  1.68268e-04
 Reference value :  1.68273e-04
 Reference value :  1.68281e-04
 Reference value :  1.68299e-04
 Reference value :  1.68331e-04
 Reference value :  1.68396e-04
 Reference value :  1.68500e-04
 Reference value :  1.68500e-04
 Reference value :  1.68500e-04
 Reference value :  1.68500e-04
 Reference value :  1.68500e-04
 Reference value :  1.68500e-04
 Reference value :  1.68500e-04
 Reference value :  1.68500e-04
 Reference value :  1.68500e-04
 Reference value :  1.68500e-04
 Reference value :  1.68500e-04
 Reference value :  1.68501e-04
 Reference value :  1.68501e-04
 Reference value :  1.68501e-04
 Reference value :  1.68502e-04
 Reference value :  1.68502e-04
 Reference value :  1.68503e-04
 Reference value :  1.68504e-04
 Reference value :  1.68504e-04
 Reference value :  1.68505e-04
 Reference value :  1.68506e-04
 Reference value :  1.68506e-04
 Reference value :  1.68507e-04
 Reference value :  1.68508e-04
 Reference value :  1.68508e-04
 Reference value :  1.68509e-04
 Reference value :  1.68510e-04
 Reference value :  1.68512e-04
 Reference value :  1.68513e-04
 Reference value :  1.68514e-04
 Reference value :  1.68516e-04
 Reference value :  1.68517e-04
 Reference value :  1.68518e-04
 Reference value :  1.68519e-04
 Reference value :  1.68520e-04
 Reference value :  1.68521e-04
 Reference value :  1.68522e-04
 Reference value :  1.68523e-04
 Reference value :  1.68525e-04
 Reference value :  1.68526e-04
 Reference value :  1.68528e-04
 Reference value :  1.68531e-04
 Reference value :  1.68535e-04
 Reference value :  1.68540e-04
 Reference value :  1.68545e-04
 Reference value :  1.68552e-04
 Reference value :  1.68561e-04
 Reference value :  1.68574e-04
 Reference value :  1.68582e-04
 Reference value :  1.68591e-04
 Reference value :  1.68603e-04
 Reference value :  1.68618e-04
 Reference value :  1.68633e-04
 Reference value :  1.68654e-04
 Reference value :  1.68696e-04
 Reference value :  1.68750e-04
 Reference value :  1.68750e-04
 Reference value :  1.68750e-04
 Reference value :  1.68750e-04
 Reference value :  1.68750e-04
 Reference value :  1.68750e-04
 Reference value :  1.68750e-04
 Reference value :  1.68750e-04
 Reference value :  1.68750e-04
 Reference value :  1.68750e-04
 Reference value :  1.68750e-04
 Reference value :  1.68750e-04
 Reference value :  1.68750e-04
 Reference value :  1.68751e-04
 Reference value :  1.68751e-04
 Reference value :  1.68751e-04
 Reference value :  1.68752e-04
 Reference value :  1.68752e-04
 Reference value :  1.68753e-04
 Reference value :  1.68754e-04
 Reference value :  1.68755e-04
 Reference value :  1.68755e-04
 Reference value :  1.68756e-04
 Reference value :  1.68757e-04
 Reference value :  1.68758e-04
 Reference value :  1.68760e-04
 Reference value :  1.68762e-04
 Reference value :  1.68765e-04
 Reference value :  1.68769e-04
 Reference value :  1.68777e-04
 Reference value :  1.68790e-04
 Reference value :  1.68814e-04
 Reference value :  1.68857e-04
 Reference value :  1.68944e-04
 Reference value :  1.69000e-04
 Reference value :  1.69000e-04
 Reference value :  1.69000e-04
 Reference value :  1.69000e-04
 Reference value :  1.69000e-04
 Reference value :  1.69000e-04
 Reference value :  1.69000e-04
 Reference value :  1.69000e-04
 Reference value :  1.69000e-04
 Reference value :  1.69000e-04
 Reference value :  1.69000e-04
 Reference value :  1.69001e-04
 Reference value :  1.69001e-04
 Reference value :  1.69001e-04
 Reference value :  1.69002e-04
 Reference value :  1.69002e-04
 Reference value :  1.69003e-04
 Reference value :  1.69004e-04
 Reference value :  1.69004e-04
 Reference value :  1.69005e-04
 Reference value :  1.69006e-04
 Reference value :  1.69007e-04
 Reference value :  1.69008e-04
 Reference value :  1.69009e-04
 Reference value :  1.69011e-04
 Reference value :  1.69012e-04
 Reference value :  1.69013e-04
 Reference value :  1.69014e-04
 Reference value :  1.69015e-04
 Reference value :  1.69017e-04
 Reference value :  1.69020e-04
 Reference value :  1.69024e-04
 Reference value :  1.69032e-04
 Reference value :  1.69049e-04
 Reference value :  1.69079e-04
 Reference value :  1.69140e-04
 Reference value :  1.69250e-04
 Reference value :  1.69250e-04
 Reference value :  1.69250e-04
 Reference value :  1.69250e-04
 Reference value :  1.69250e-04
 Reference value :  1.69250e-04
 Reference value :  1.69250e-04
 Reference value :  1.69250e-04
 Reference value :  1.69250e-04
 Reference value :  1.69250e-04
 Reference value :  1.69250e-04
 Reference value :  1.69250e-04
 Reference value :  1.69250e-04
 Reference value :  1.69251e-04
 Reference value :  1.69251e-04
 Reference value :  1.69251e-04
 Reference value :  1.69252e-04
 Reference value :  1.69252e-04
 Reference value :  1.69253e-04
 Reference value :  1.69254e-04
 Reference value :  1.69255e-04
 Reference value :  1.69255e-04
 Reference value :  1.69256e-04
 Reference value :  1.69257e-04
 Reference value :  1.69258e-04
 Reference value :  1.69259e-04
 Reference value :  1.69261e-04
 Reference value :  1.69263e-04
 Reference value :  1.69266e-04
 Reference value :  1.69272e-04
 Reference value :  1.69284e-04
 Reference value :  1.69305e-04
 Reference value :  1.69346e-04
 Reference value :  1.69428e-04
 Reference value :  1.69500e-04
 Reference value :  1.69500e-04
 Reference value :  1.69500e-04
 Reference value :  1.69500e-04
 Reference value :  1.69500e-04
 Reference value :  1.69500e-04
 Reference value :  1.69500e-04
 Reference value :  1.69500e-04
 Reference value :  1.69500e-04
 Reference value :  1.69500e-04
 Reference value :  1.69500e-04
 Reference value :  1.69501e-04
 Reference value :  1.69501e-04
 Reference value :  1.69501e-04
 Reference value :  1.69502e-04
 Reference value :  1.69502e-04
 Reference value :  1.69503e-04
 Reference value :  1.69504e-04
 Reference value :  1.69504e-04
 Reference value :  1.69505e-04
 Reference value :  1.69506e-04
 Reference value :  1.69507e-04
 Reference value :  1.69507e-04
 Reference value :  1.69508e-04
 Reference value :  1.69509e-04
 Reference value :  1.69510e-04
 Reference value :  1.69512e-04
 Reference value :  1.69514e-04
 Reference value :  1.69517e-04
 Reference value :  1.69518e-04
 Reference value :  1.69521e-04
 Reference value :  1.69523e-04
 Reference value :  1.69526e-04
 Reference value :  1.69530e-04
 Reference value :  1.69536e-04
 Reference value :  1.69545e-04
 Reference value :  1.69559e-04
 Reference value :  1.69582e-04
 Reference value :  1.69621e-04
 Reference value :  1.69698e-04
 Reference value :  1.69750e-04
 Reference value :  1.69750e-04
 Reference value :  1.69750e-04
 Reference value :  1.69750e-04
 Reference value :  1.69750e-04
 Reference value :  1.69750e-04
 Reference value :  1.69750e-04
 Reference value :  1.69750e-04
 Reference value :  1.69750e-04
 Reference value :  1.69750e-04
 Reference value :  1.69750e-04
 Reference value :  1.69750e-04
 Reference value :  1.69750e-04
 Reference value :  1.69751e-04
 Reference value :  1.69751e-04
 Reference value :  1.69751e-04
 Reference value :  1.69752e-04
 Reference value :  1.69752e-04
 Reference value :  1.69753e-04
 Reference value :  1.69754e-04
 Reference value :  1.69755e-04
 Reference value :  1.69756e-04
 Reference value :  1.69757e-04
 Reference value :  1.69759e-04
 Reference value :  1.69761e-04
 Reference value :  1.69763e-04
 Reference value :  1.69766e-04
 Reference value :  1.69771e-04
 Reference value :  1.69780e-04
 Reference value :  1.69798e-04
 Reference value :  1.69834e-04
 Reference value :  1.69907e-04
 Reference value :  1.70000e-04
No. of Data Rows : 26797
ngspice-44 done
