
Note: Compatibility modes selected: hs a


Circuit: ** sch_path: /home/samantha/cace/sar-adc-using-sky130-pdk/runs/run_2025-09-05_20-12-23/parameters/inl/run_3/sar_output.sch

option SCALE: Scale is set to 1e-06 for instance and model parameters
option SCALE: Scale is set to 1e-06 for instance and model parameters
option SCALE: Scale is set to 1e-06 for instance and model parameters
option SCALE: Scale is set to 1e-06 for instance and model parameters
Doing analysis at TEMP = 27.000000 and TNOM = 27.000000

Using KLU as Direct Linear Solver
Operating point simulation skipped by 'uic',
  now using transient initial conditions.
 Reference value :  1.00000e-12
 Reference value :  1.02386e-12
 Reference value :  1.07159e-12
 Reference value :  1.14191e-12
 Reference value :  1.21992e-12
 Reference value :  1.35801e-12
 Reference value :  1.57251e-12
 Reference value :  1.90217e-12
 Reference value :  2.53065e-12
 Reference value :  3.45817e-12
 Reference value :  4.88206e-12
 Reference value :  6.40378e-12
 Reference value :  8.74777e-12
 Reference value :  1.27890e-11
 Reference value :  1.82890e-11
 Reference value :  2.51892e-11
 Reference value :  3.42448e-11
 Reference value :  4.43145e-11
 Reference value :  6.01840e-11
 Reference value :  7.79138e-11
 Reference value :  1.00000e-10
 Reference value :  1.00424e-10
 Reference value :  1.01272e-10
 Reference value :  1.02967e-10
 Reference value :  1.06321e-10
 Reference value :  1.13030e-10
 Reference value :  1.26447e-10
 Reference value :  1.53280e-10
 Reference value :  1.90676e-10
 Reference value :  2.38518e-10
 Reference value :  3.06775e-10
 Reference value :  4.30568e-10
 Reference value :  6.61910e-10
 Reference value :  9.49132e-10
 Reference value :  1.38011e-09
 Reference value :  1.87668e-09
 Reference value :  2.64087e-09
 Reference value :  3.50692e-09
 Reference value :  4.51235e-09
 Reference value :  5.33631e-09
 Reference value :  6.23073e-09
 Reference value :  7.08915e-09
 Reference value :  7.97245e-09
 Reference value :  9.00773e-09
 Reference value :  1.01072e-08
 Reference value :  1.12689e-08
 Reference value :  1.26416e-08
 Reference value :  1.40606e-08
 Reference value :  1.55158e-08
 Reference value :  1.69022e-08
 Reference value :  1.82344e-08
 Reference value :  1.96345e-08
 Reference value :  2.10447e-08
 Reference value :  2.29495e-08
 Reference value :  2.42709e-08
 Reference value :  2.59350e-08
 Reference value :  2.78231e-08
 Reference value :  3.08800e-08
 Reference value :  3.40088e-08
 Reference value :  3.81093e-08
 Reference value :  4.23866e-08
 Reference value :  4.68707e-08
 Reference value :  4.98446e-08
 Reference value :  5.34169e-08
 Reference value :  5.73132e-08
 Reference value :  6.16596e-08
 Reference value :  6.89335e-08
 Reference value :  7.50029e-08
 Reference value :  8.13890e-08
 Reference value :  8.78760e-08
 Reference value :  9.48247e-08
 Reference value :  1.01086e-07
 Reference value :  1.06031e-07
 Reference value :  1.11395e-07
 Reference value :  1.17736e-07
 Reference value :  1.29047e-07
 Reference value :  1.48950e-07
 Reference value :  1.83345e-07
 Reference value :  2.46656e-07
 Reference value :  2.50100e-07
 Reference value :  2.50110e-07
 Reference value :  2.50130e-07
 Reference value :  2.50170e-07
 Reference value :  2.50200e-07
 Reference value :  2.50201e-07
 Reference value :  2.50202e-07
 Reference value :  2.50204e-07
 Reference value :  2.50208e-07
 Reference value :  2.50216e-07
 Reference value :  2.50232e-07
 Reference value :  2.50265e-07
 Reference value :  2.50331e-07
 Reference value :  2.50414e-07
 Reference value :  2.50579e-07
 Reference value :  2.50745e-07
 Reference value :  2.51077e-07
 Reference value :  2.51464e-07
 Reference value :  2.52140e-07
 Reference value :  2.52795e-07
 Reference value :  2.53525e-07
 Reference value :  2.54494e-07
 Reference value :  2.55497e-07
 Reference value :  2.56526e-07
 Reference value :  2.57716e-07
 Reference value :  2.58793e-07
 Reference value :  2.60120e-07
 Reference value :  2.61351e-07
 Reference value :  2.63006e-07
 Reference value :  2.65895e-07
 Reference value :  2.69847e-07
 Reference value :  2.77668e-07
 Reference value :  2.91306e-07
 Reference value :  3.15083e-07
 Reference value :  3.59786e-07
 Reference value :  4.37735e-07
 Reference value :  5.00000e-07
 Reference value :  5.00010e-07
 Reference value :  5.00030e-07
 Reference value :  5.00070e-07
 Reference value :  5.00100e-07
 Reference value :  5.00101e-07
 Reference value :  5.00102e-07
 Reference value :  5.00104e-07
 Reference value :  5.00108e-07
 Reference value :  5.00116e-07
 Reference value :  5.00133e-07
 Reference value :  5.00166e-07
 Reference value :  5.00232e-07
 Reference value :  5.00364e-07
 Reference value :  5.00562e-07
 Reference value :  5.00958e-07
 Reference value :  5.01468e-07
 Reference value :  5.02005e-07
 Reference value :  5.02765e-07
 Reference value :  5.03572e-07
 Reference value :  5.04320e-07
 Reference value :  5.05131e-07
 Reference value :  5.06130e-07
 Reference value :  5.07176e-07
 Reference value :  5.08402e-07
 Reference value :  5.09764e-07
 Reference value :  5.11619e-07
 Reference value :  5.13521e-07
 Reference value :  5.15478e-07
 Reference value :  5.17410e-07
 Reference value :  5.19723e-07
 Reference value :  5.23968e-07
 Reference value :  5.26995e-07
 Reference value :  5.30558e-07
 Reference value :  5.34323e-07
 Reference value :  5.38293e-07
 Reference value :  5.44484e-07
 Reference value :  5.50299e-07
 Reference value :  5.60208e-07
 Reference value :  5.73358e-07
 Reference value :  5.99656e-07
 Reference value :  6.51176e-07
 Reference value :  7.38588e-07
 Reference value :  7.50100e-07
 Reference value :  7.50110e-07
 Reference value :  7.50130e-07
 Reference value :  7.50170e-07
 Reference value :  7.50200e-07
 Reference value :  7.50201e-07
 Reference value :  7.50202e-07
 Reference value :  7.50204e-07
 Reference value :  7.50208e-07
 Reference value :  7.50216e-07
 Reference value :  7.50233e-07
 Reference value :  7.50266e-07
 Reference value :  7.50333e-07
 Reference value :  7.50467e-07
 Reference value :  7.50644e-07
 Reference value :  7.50914e-07
 Reference value :  7.51453e-07
 Reference value :  7.52099e-07
 Reference value :  7.52799e-07
 Reference value :  7.53529e-07
 Reference value :  7.54426e-07
 Reference value :  7.55524e-07
 Reference value :  7.56676e-07
 Reference value :  7.57707e-07
 Reference value :  7.58806e-07
 Reference value :  7.59801e-07
 Reference value :  7.60851e-07
 Reference value :  7.62085e-07
 Reference value :  7.63384e-07
 Reference value :  7.64954e-07
 Reference value :  7.66881e-07
 Reference value :  7.69513e-07
 Reference value :  7.72595e-07
 Reference value :  7.77490e-07
 Reference value :  7.87280e-07
 Reference value :  8.04452e-07
 Reference value :  8.36343e-07
 Reference value :  8.96039e-07
 Reference value :  1.00000e-06
 Reference value :  1.00001e-06
 Reference value :  1.00003e-06
 Reference value :  1.00007e-06
 Reference value :  1.00010e-06
 Reference value :  1.00010e-06
 Reference value :  1.00010e-06
 Reference value :  1.00010e-06
 Reference value :  1.00011e-06
 Reference value :  1.00012e-06
 Reference value :  1.00013e-06
 Reference value :  1.00017e-06
 Reference value :  1.00023e-06
 Reference value :  1.00036e-06
 Reference value :  1.00056e-06
 Reference value :  1.00096e-06
 Reference value :  1.00147e-06
 Reference value :  1.00201e-06
 Reference value :  1.00276e-06
 Reference value :  1.00346e-06
 Reference value :  1.00420e-06
 Reference value :  1.00499e-06
 Reference value :  1.00587e-06
 Reference value :  1.00691e-06
 Reference value :  1.00768e-06
 Reference value :  1.00855e-06
 Reference value :  1.00939e-06
 Reference value :  1.01026e-06
 Reference value :  1.01143e-06
 Reference value :  1.01268e-06
 Reference value :  1.01518e-06
 Reference value :  1.01755e-06
 Reference value :  1.01942e-06
 Reference value :  1.02149e-06
 Reference value :  1.02435e-06
 Reference value :  1.02664e-06
 Reference value :  1.02866e-06
 Reference value :  1.03014e-06
 Reference value :  1.03157e-06
 Reference value :  1.03322e-06
 Reference value :  1.03488e-06
 Reference value :  1.03684e-06
 Reference value :  1.03987e-06
 Reference value :  1.04308e-06
 Reference value :  1.04951e-06
 Reference value :  1.05933e-06
 Reference value :  1.07644e-06
 Reference value :  1.10719e-06
 Reference value :  1.15828e-06
 Reference value :  1.23309e-06
 Reference value :  1.25010e-06
 Reference value :  1.25011e-06
 Reference value :  1.25013e-06
 Reference value :  1.25017e-06
 Reference value :  1.25020e-06
 Reference value :  1.25020e-06
 Reference value :  1.25020e-06
 Reference value :  1.25020e-06
 Reference value :  1.25021e-06
 Reference value :  1.25022e-06
 Reference value :  1.25023e-06
 Reference value :  1.25027e-06
 Reference value :  1.25033e-06
 Reference value :  1.25047e-06
 Reference value :  1.25064e-06
 Reference value :  1.25091e-06
 Reference value :  1.25145e-06
 Reference value :  1.25210e-06
 Reference value :  1.25288e-06
 Reference value :  1.25358e-06
 Reference value :  1.25455e-06
 Reference value :  1.25561e-06
 Reference value :  1.25652e-06
 Reference value :  1.25760e-06
 Reference value :  1.25872e-06
 Reference value :  1.25987e-06
 Reference value :  1.26137e-06
 Reference value :  1.26390e-06
 Reference value :  1.26735e-06
 Reference value :  1.27248e-06
 Reference value :  1.28273e-06
 Reference value :  1.29891e-06
 Reference value :  1.33103e-06
 Reference value :  1.39527e-06
 Reference value :  1.50000e-06
 Reference value :  1.50001e-06
 Reference value :  1.50003e-06
 Reference value :  1.50007e-06
 Reference value :  1.50010e-06
 Reference value :  1.50010e-06
 Reference value :  1.50010e-06
 Reference value :  1.50010e-06
 Reference value :  1.50011e-06
 Reference value :  1.50012e-06
 Reference value :  1.50013e-06
 Reference value :  1.50017e-06
 Reference value :  1.50023e-06
 Reference value :  1.50036e-06
 Reference value :  1.50056e-06
 Reference value :  1.50095e-06
 Reference value :  1.50146e-06
 Reference value :  1.50200e-06
 Reference value :  1.50275e-06
 Reference value :  1.50344e-06
 Reference value :  1.50417e-06
 Reference value :  1.50501e-06
 Reference value :  1.50593e-06
 Reference value :  1.50691e-06
 Reference value :  1.50791e-06
 Reference value :  1.50963e-06
 Reference value :  1.51120e-06
 Reference value :  1.51316e-06
 Reference value :  1.51475e-06
 Reference value :  1.51645e-06
 Reference value :  1.51872e-06
 Reference value :  1.52106e-06
 Reference value :  1.52496e-06
 Reference value :  1.53015e-06
 Reference value :  1.53825e-06
 Reference value :  1.55114e-06
 Reference value :  1.57406e-06
 Reference value :  1.61735e-06
 Reference value :  1.69457e-06
 Reference value :  1.75010e-06
 Reference value :  1.75011e-06
 Reference value :  1.75013e-06
 Reference value :  1.75017e-06
 Reference value :  1.75020e-06
 Reference value :  1.75020e-06
 Reference value :  1.75020e-06
 Reference value :  1.75020e-06
 Reference value :  1.75021e-06
 Reference value :  1.75022e-06
 Reference value :  1.75023e-06
 Reference value :  1.75027e-06
 Reference value :  1.75033e-06
 Reference value :  1.75047e-06
 Reference value :  1.75064e-06
 Reference value :  1.75091e-06
 Reference value :  1.75145e-06
 Reference value :  1.75210e-06
 Reference value :  1.75288e-06
 Reference value :  1.75358e-06
 Reference value :  1.75454e-06
 Reference value :  1.75561e-06
 Reference value :  1.75653e-06
 Reference value :  1.75762e-06
 Reference value :  1.75853e-06
 Reference value :  1.75951e-06
 Reference value :  1.76064e-06
 Reference value :  1.76189e-06
 Reference value :  1.76337e-06
 Reference value :  1.76497e-06
 Reference value :  1.76740e-06
 Reference value :  1.77001e-06
 Reference value :  1.77436e-06
 Reference value :  1.78306e-06
 Reference value :  1.79609e-06
 Reference value :  1.82159e-06
 Reference value :  1.86459e-06
 Reference value :  1.94068e-06
 Reference value :  2.00000e-06
 Reference value :  2.00001e-06
 Reference value :  2.00003e-06
 Reference value :  2.00007e-06
 Reference value :  2.00010e-06
 Reference value :  2.00010e-06
 Reference value :  2.00010e-06
 Reference value :  2.00010e-06
 Reference value :  2.00011e-06
 Reference value :  2.00012e-06
 Reference value :  2.00013e-06
 Reference value :  2.00017e-06
 Reference value :  2.00023e-06
 Reference value :  2.00036e-06
 Reference value :  2.00056e-06
 Reference value :  2.00095e-06
 Reference value :  2.00146e-06
 Reference value :  2.00200e-06
 Reference value :  2.00275e-06
 Reference value :  2.00345e-06
 Reference value :  2.00418e-06
 Reference value :  2.00498e-06
 Reference value :  2.00586e-06
 Reference value :  2.00661e-06
 Reference value :  2.00746e-06
 Reference value :  2.00819e-06
 Reference value :  2.00904e-06
 Reference value :  2.01011e-06
 Reference value :  2.01122e-06
 Reference value :  2.01324e-06
 Reference value :  2.01537e-06
 Reference value :  2.01761e-06
 Reference value :  2.01983e-06
 Reference value :  2.02193e-06
 Reference value :  2.02420e-06
 Reference value :  2.02601e-06
 Reference value :  2.02744e-06
 Reference value :  2.02897e-06
 Reference value :  2.03070e-06
 Reference value :  2.03257e-06
 Reference value :  2.03462e-06
 Reference value :  2.03763e-06
 Reference value :  2.04131e-06
 Reference value :  2.04867e-06
 Reference value :  2.05848e-06
 Reference value :  2.07617e-06
 Reference value :  2.09867e-06
 Reference value :  2.14365e-06
 Reference value :  2.19695e-06
 Reference value :  2.24578e-06
 Reference value :  2.25010e-06
 Reference value :  2.25011e-06
 Reference value :  2.25013e-06
 Reference value :  2.25017e-06
 Reference value :  2.25020e-06
 Reference value :  2.25020e-06
 Reference value :  2.25020e-06
 Reference value :  2.25020e-06
 Reference value :  2.25021e-06
 Reference value :  2.25022e-06
 Reference value :  2.25023e-06
 Reference value :  2.25027e-06
 Reference value :  2.25033e-06
 Reference value :  2.25047e-06
 Reference value :  2.25064e-06
 Reference value :  2.25091e-06
 Reference value :  2.25145e-06
 Reference value :  2.25210e-06
 Reference value :  2.25288e-06
 Reference value :  2.25358e-06
 Reference value :  2.25454e-06
 Reference value :  2.25550e-06
 Reference value :  2.25653e-06
 Reference value :  2.25754e-06
 Reference value :  2.25862e-06
 Reference value :  2.26025e-06
 Reference value :  2.26208e-06
 Reference value :  2.26469e-06
 Reference value :  2.26839e-06
 Reference value :  2.27460e-06
 Reference value :  2.28085e-06
 Reference value :  2.28526e-06
 Reference value :  2.28939e-06
 Reference value :  2.29436e-06
 Reference value :  2.29888e-06
 Reference value :  2.30585e-06
 Reference value :  2.31543e-06
 Reference value :  2.32890e-06
 Reference value :  2.35064e-06
 Reference value :  2.38135e-06
 Reference value :  2.43408e-06
 Reference value :  2.50000e-06
 Reference value :  2.50001e-06
 Reference value :  2.50003e-06
 Reference value :  2.50007e-06
 Reference value :  2.50010e-06
 Reference value :  2.50010e-06
 Reference value :  2.50010e-06
 Reference value :  2.50010e-06
 Reference value :  2.50011e-06
 Reference value :  2.50012e-06
 Reference value :  2.50013e-06
 Reference value :  2.50017e-06
 Reference value :  2.50023e-06
 Reference value :  2.50036e-06
 Reference value :  2.50055e-06
 Reference value :  2.50091e-06
 Reference value :  2.50141e-06
 Reference value :  2.50194e-06
 Reference value :  2.50269e-06
 Reference value :  2.50338e-06
 Reference value :  2.50409e-06
 Reference value :  2.50487e-06
 Reference value :  2.50575e-06
 Reference value :  2.50669e-06
 Reference value :  2.50793e-06
 Reference value :  2.50945e-06
 Reference value :  2.51166e-06
 Reference value :  2.51317e-06
 Reference value :  2.51482e-06
 Reference value :  2.51648e-06
 Reference value :  2.51877e-06
 Reference value :  2.52128e-06
 Reference value :  2.52550e-06
 Reference value :  2.53151e-06
 Reference value :  2.54117e-06
 Reference value :  2.55999e-06
 Reference value :  2.58979e-06
 Reference value :  2.64472e-06
 Reference value :  2.73937e-06
 Reference value :  2.75010e-06
 Reference value :  2.75011e-06
 Reference value :  2.75013e-06
 Reference value :  2.75017e-06
 Reference value :  2.75020e-06
 Reference value :  2.75020e-06
 Reference value :  2.75020e-06
 Reference value :  2.75020e-06
 Reference value :  2.75021e-06
 Reference value :  2.75022e-06
 Reference value :  2.75023e-06
 Reference value :  2.75027e-06
 Reference value :  2.75033e-06
 Reference value :  2.75047e-06
 Reference value :  2.75064e-06
 Reference value :  2.75091e-06
 Reference value :  2.75145e-06
 Reference value :  2.75210e-06
 Reference value :  2.75287e-06
 Reference value :  2.75358e-06
 Reference value :  2.75455e-06
 Reference value :  2.75561e-06
 Reference value :  2.75657e-06
 Reference value :  2.75747e-06
 Reference value :  2.75843e-06
 Reference value :  2.75954e-06
 Reference value :  2.76079e-06
 Reference value :  2.76328e-06
 Reference value :  2.76640e-06
 Reference value :  2.77097e-06
 Reference value :  2.77924e-06
 Reference value :  2.79432e-06
 Reference value :  2.81946e-06
 Reference value :  2.86975e-06
 Reference value :  2.97032e-06
 Reference value :  3.00000e-06
 Reference value :  3.00001e-06
 Reference value :  3.00003e-06
 Reference value :  3.00007e-06
 Reference value :  3.00010e-06
 Reference value :  3.00010e-06
 Reference value :  3.00010e-06
 Reference value :  3.00010e-06
 Reference value :  3.00011e-06
 Reference value :  3.00012e-06
 Reference value :  3.00013e-06
 Reference value :  3.00017e-06
 Reference value :  3.00023e-06
 Reference value :  3.00036e-06
 Reference value :  3.00055e-06
 Reference value :  3.00091e-06
 Reference value :  3.00141e-06
 Reference value :  3.00194e-06
 Reference value :  3.00269e-06
 Reference value :  3.00338e-06
 Reference value :  3.00409e-06
 Reference value :  3.00487e-06
 Reference value :  3.00574e-06
 Reference value :  3.00666e-06
 Reference value :  3.00762e-06
 Reference value :  3.00843e-06
 Reference value :  3.00934e-06
 Reference value :  3.01049e-06
 Reference value :  3.01172e-06
 Reference value :  3.01403e-06
 Reference value :  3.01619e-06
 Reference value :  3.01900e-06
 Reference value :  3.02129e-06
 Reference value :  3.02335e-06
 Reference value :  3.02481e-06
 Reference value :  3.02634e-06
 Reference value :  3.02792e-06
 Reference value :  3.02953e-06
 Reference value :  3.03138e-06
 Reference value :  3.03430e-06
 Reference value :  3.03730e-06
 Reference value :  3.04331e-06
 Reference value :  3.04958e-06
 Reference value :  3.05591e-06
 Reference value :  3.06013e-06
 Reference value :  3.06567e-06
 Reference value :  3.06909e-06
 Reference value :  3.07233e-06
 Reference value :  3.07582e-06
 Reference value :  3.07936e-06
 Reference value :  3.08326e-06
 Reference value :  3.08937e-06
 Reference value :  3.09662e-06
 Reference value :  3.10309e-06
 Reference value :  3.11142e-06
 Reference value :  3.11968e-06
 Reference value :  3.13576e-06
 Reference value :  3.15937e-06
 Reference value :  3.19898e-06
 Reference value :  3.25010e-06
 Reference value :  3.25011e-06
 Reference value :  3.25013e-06
 Reference value :  3.25017e-06
 Reference value :  3.25020e-06
 Reference value :  3.25020e-06
 Reference value :  3.25020e-06
 Reference value :  3.25020e-06
 Reference value :  3.25021e-06
 Reference value :  3.25022e-06
 Reference value :  3.25023e-06
 Reference value :  3.25027e-06
 Reference value :  3.25033e-06
 Reference value :  3.25047e-06
 Reference value :  3.25064e-06
 Reference value :  3.25091e-06
 Reference value :  3.25145e-06
 Reference value :  3.25210e-06
 Reference value :  3.25287e-06
 Reference value :  3.25358e-06
 Reference value :  3.25455e-06
 Reference value :  3.25561e-06
 Reference value :  3.25658e-06
 Reference value :  3.25758e-06
 Reference value :  3.25864e-06
 Reference value :  3.26037e-06
 Reference value :  3.26199e-06
 Reference value :  3.26479e-06
 Reference value :  3.26828e-06
 Reference value :  3.27518e-06
 Reference value :  3.28623e-06
 Reference value :  3.30460e-06
 Reference value :  3.34136e-06
 Reference value :  3.41343e-06
 Reference value :  3.50000e-06
 Reference value :  3.50001e-06
 Reference value :  3.50003e-06
 Reference value :  3.50007e-06
 Reference value :  3.50010e-06
 Reference value :  3.50010e-06
 Reference value :  3.50010e-06
 Reference value :  3.50010e-06
 Reference value :  3.50011e-06
 Reference value :  3.50012e-06
 Reference value :  3.50013e-06
 Reference value :  3.50017e-06
 Reference value :  3.50023e-06
 Reference value :  3.50036e-06
 Reference value :  3.50055e-06
 Reference value :  3.50091e-06
 Reference value :  3.50141e-06
 Reference value :  3.50194e-06
 Reference value :  3.50269e-06
 Reference value :  3.50338e-06
 Reference value :  3.50410e-06
 Reference value :  3.50490e-06
 Reference value :  3.50579e-06
 Reference value :  3.50677e-06
 Reference value :  3.50802e-06
 Reference value :  3.50960e-06
 Reference value :  3.51110e-06
 Reference value :  3.51269e-06
 Reference value :  3.51429e-06
 Reference value :  3.51593e-06
 Reference value :  3.51762e-06
 Reference value :  3.51988e-06
 Reference value :  3.52225e-06
 Reference value :  3.52654e-06
 Reference value :  3.53270e-06
 Reference value :  3.54340e-06
 Reference value :  3.56269e-06
 Reference value :  3.59570e-06
 Reference value :  3.65749e-06
 Reference value :  3.75010e-06
 Reference value :  3.75011e-06
 Reference value :  3.75013e-06
 Reference value :  3.75017e-06
 Reference value :  3.75020e-06
 Reference value :  3.75020e-06
 Reference value :  3.75020e-06
 Reference value :  3.75020e-06
 Reference value :  3.75021e-06
 Reference value :  3.75022e-06
 Reference value :  3.75023e-06
 Reference value :  3.75027e-06
 Reference value :  3.75033e-06
 Reference value :  3.75047e-06
 Reference value :  3.75064e-06
 Reference value :  3.75091e-06
 Reference value :  3.75145e-06
 Reference value :  3.75210e-06
 Reference value :  3.75288e-06
 Reference value :  3.75358e-06
 Reference value :  3.75455e-06
 Reference value :  3.75561e-06
 Reference value :  3.75651e-06
 Reference value :  3.75749e-06
 Reference value :  3.75843e-06
 Reference value :  3.75946e-06
 Reference value :  3.76064e-06
 Reference value :  3.76202e-06
 Reference value :  3.76348e-06
 Reference value :  3.76598e-06
 Reference value :  3.76855e-06
 Reference value :  3.77220e-06
 Reference value :  3.77739e-06
 Reference value :  3.78778e-06
 Reference value :  3.80855e-06
 Reference value :  3.85010e-06
 Reference value :  3.93319e-06
 Reference value :  4.00000e-06
 Reference value :  4.00001e-06
 Reference value :  4.00003e-06
 Reference value :  4.00007e-06
 Reference value :  4.00010e-06
 Reference value :  4.00010e-06
 Reference value :  4.00010e-06
 Reference value :  4.00010e-06
 Reference value :  4.00011e-06
 Reference value :  4.00012e-06
 Reference value :  4.00013e-06
 Reference value :  4.00017e-06
 Reference value :  4.00023e-06
 Reference value :  4.00036e-06
 Reference value :  4.00055e-06
 Reference value :  4.00091e-06
 Reference value :  4.00141e-06
 Reference value :  4.00194e-06
 Reference value :  4.00269e-06
 Reference value :  4.00337e-06
 Reference value :  4.00409e-06
 Reference value :  4.00487e-06
 Reference value :  4.00575e-06
 Reference value :  4.00648e-06
 Reference value :  4.00727e-06
 Reference value :  4.00802e-06
 Reference value :  4.00888e-06
 Reference value :  4.00970e-06
 Reference value :  4.01095e-06
 Reference value :  4.01209e-06
 Reference value :  4.01417e-06
 Reference value :  4.01638e-06
 Reference value :  4.01810e-06
 Reference value :  4.01997e-06
 Reference value :  4.02245e-06
 Reference value :  4.02450e-06
 Reference value :  4.02607e-06
 Reference value :  4.02753e-06
 Reference value :  4.02910e-06
 Reference value :  4.03070e-06
 Reference value :  4.03252e-06
 Reference value :  4.03571e-06
 Reference value :  4.03863e-06
 Reference value :  4.04446e-06
 Reference value :  4.05369e-06
 Reference value :  4.06788e-06
 Reference value :  4.08636e-06
 Reference value :  4.10486e-06
 Reference value :  4.12422e-06
 Reference value :  4.14296e-06
 Reference value :  4.16262e-06
 Reference value :  4.19336e-06
 Reference value :  4.23827e-06
 Reference value :  4.25010e-06
 Reference value :  4.25011e-06
 Reference value :  4.25013e-06
 Reference value :  4.25017e-06
 Reference value :  4.25020e-06
 Reference value :  4.25020e-06
 Reference value :  4.25020e-06
 Reference value :  4.25020e-06
 Reference value :  4.25021e-06
 Reference value :  4.25022e-06
 Reference value :  4.25023e-06
 Reference value :  4.25027e-06
 Reference value :  4.25033e-06
 Reference value :  4.25042e-06
 Reference value :  4.25058e-06
 Reference value :  4.25077e-06
 Reference value :  4.25109e-06
 Reference value :  4.25172e-06
 Reference value :  4.25234e-06
 Reference value :  4.25304e-06
 Reference value :  4.25378e-06
 Reference value :  4.25472e-06
 Reference value :  4.25553e-06
 Reference value :  4.25646e-06
 Reference value :  4.25737e-06
 Reference value :  4.25832e-06
 Reference value :  4.25986e-06
 Reference value :  4.26142e-06
 Reference value :  4.26404e-06
 Reference value :  4.26740e-06
 Reference value :  4.27267e-06
 Reference value :  4.28322e-06
 Reference value :  4.30431e-06
 Reference value :  4.34649e-06
 Reference value :  4.43086e-06
 Reference value :  4.50000e-06
 Reference value :  4.50001e-06
 Reference value :  4.50003e-06
 Reference value :  4.50007e-06
 Reference value :  4.50010e-06
 Reference value :  4.50010e-06
 Reference value :  4.50010e-06
 Reference value :  4.50010e-06
 Reference value :  4.50011e-06
 Reference value :  4.50012e-06
 Reference value :  4.50013e-06
 Reference value :  4.50017e-06
 Reference value :  4.50023e-06
 Reference value :  4.50036e-06
 Reference value :  4.50062e-06
 Reference value :  4.50109e-06
 Reference value :  4.50174e-06
 Reference value :  4.50246e-06
 Reference value :  4.50308e-06
 Reference value :  4.50385e-06
 Reference value :  4.50481e-06
 Reference value :  4.50576e-06
 Reference value :  4.50670e-06
 Reference value :  4.50785e-06
 Reference value :  4.50928e-06
 Reference value :  4.51101e-06
 Reference value :  4.51234e-06
 Reference value :  4.51378e-06
 Reference value :  4.51520e-06
 Reference value :  4.51688e-06
 Reference value :  4.51864e-06
 Reference value :  4.52189e-06
 Reference value :  4.52659e-06
 Reference value :  4.53546e-06
 Reference value :  4.55229e-06
 Reference value :  4.58171e-06
 Reference value :  4.64057e-06
 Reference value :  4.75010e-06
 Reference value :  4.75011e-06
 Reference value :  4.75013e-06
 Reference value :  4.75017e-06
 Reference value :  4.75020e-06
 Reference value :  4.75020e-06
 Reference value :  4.75020e-06
 Reference value :  4.75020e-06
 Reference value :  4.75021e-06
 Reference value :  4.75022e-06
 Reference value :  4.75023e-06
 Reference value :  4.75027e-06
 Reference value :  4.75033e-06
 Reference value :  4.75042e-06
 Reference value :  4.75058e-06
 Reference value :  4.75077e-06
 Reference value :  4.75108e-06
 Reference value :  4.75171e-06
 Reference value :  4.75233e-06
 Reference value :  4.75303e-06
 Reference value :  4.75377e-06
 Reference value :  4.75471e-06
 Reference value :  4.75553e-06
 Reference value :  4.75647e-06
 Reference value :  4.75728e-06
 Reference value :  4.75818e-06
 Reference value :  4.75921e-06
 Reference value :  4.76036e-06
 Reference value :  4.76178e-06
 Reference value :  4.76326e-06
 Reference value :  4.76563e-06
 Reference value :  4.76814e-06
 Reference value :  4.77193e-06
 Reference value :  4.77713e-06
 Reference value :  4.78753e-06
 Reference value :  4.80832e-06
 Reference value :  4.84991e-06
 Reference value :  4.93309e-06
 Reference value :  5.00000e-06
 Reference value :  5.00001e-06
 Reference value :  5.00003e-06
 Reference value :  5.00007e-06
 Reference value :  5.00010e-06
 Reference value :  5.00010e-06
 Reference value :  5.00010e-06
 Reference value :  5.00010e-06
 Reference value :  5.00011e-06
 Reference value :  5.00012e-06
 Reference value :  5.00013e-06
 Reference value :  5.00017e-06
 Reference value :  5.00023e-06
 Reference value :  5.00036e-06
 Reference value :  5.00062e-06
 Reference value :  5.00109e-06
 Reference value :  5.00174e-06
 Reference value :  5.00246e-06
 Reference value :  5.00309e-06
 Reference value :  5.00386e-06
 Reference value :  5.00471e-06
 Reference value :  5.00560e-06
 Reference value :  5.00637e-06
 Reference value :  5.00718e-06
 Reference value :  5.00789e-06
 Reference value :  5.00869e-06
 Reference value :  5.00966e-06
 Reference value :  5.01075e-06
 Reference value :  5.01294e-06
 Reference value :  5.01511e-06
 Reference value :  5.01737e-06
 Reference value :  5.01946e-06
 Reference value :  5.02159e-06
 Reference value :  5.02392e-06
 Reference value :  5.02612e-06
 Reference value :  5.02781e-06
 Reference value :  5.02940e-06
 Reference value :  5.03094e-06
 Reference value :  5.03255e-06
 Reference value :  5.03441e-06
 Reference value :  5.03722e-06
 Reference value :  5.04018e-06
 Reference value :  5.04582e-06
 Reference value :  5.05372e-06
 Reference value :  5.06663e-06
 Reference value :  5.07886e-06
 Reference value :  5.09174e-06
 Reference value :  5.10742e-06
 Reference value :  5.12699e-06
 Reference value :  5.15609e-06
 Reference value :  5.20092e-06
 Reference value :  5.24820e-06
 Reference value :  5.25010e-06
 Reference value :  5.25011e-06
 Reference value :  5.25013e-06
 Reference value :  5.25017e-06
 Reference value :  5.25020e-06
 Reference value :  5.25020e-06
 Reference value :  5.25020e-06
 Reference value :  5.25020e-06
 Reference value :  5.25021e-06
 Reference value :  5.25022e-06
 Reference value :  5.25023e-06
 Reference value :  5.25027e-06
 Reference value :  5.25033e-06
 Reference value :  5.25042e-06
 Reference value :  5.25058e-06
 Reference value :  5.25076e-06
 Reference value :  5.25108e-06
 Reference value :  5.25172e-06
 Reference value :  5.25234e-06
 Reference value :  5.25305e-06
 Reference value :  5.25379e-06
 Reference value :  5.25473e-06
 Reference value :  5.25576e-06
 Reference value :  5.25651e-06
 Reference value :  5.25739e-06
 Reference value :  5.25836e-06
 Reference value :  5.25949e-06
 Reference value :  5.26069e-06
 Reference value :  5.26309e-06
 Reference value :  5.26619e-06
 Reference value :  5.27069e-06
 Reference value :  5.27926e-06
 Reference value :  5.29639e-06
 Reference value :  5.33066e-06
 Reference value :  5.39919e-06
 Reference value :  5.50000e-06
 Reference value :  5.50001e-06
 Reference value :  5.50003e-06
 Reference value :  5.50007e-06
 Reference value :  5.50010e-06
 Reference value :  5.50010e-06
 Reference value :  5.50010e-06
 Reference value :  5.50010e-06
 Reference value :  5.50011e-06
 Reference value :  5.50012e-06
 Reference value :  5.50013e-06
 Reference value :  5.50017e-06
 Reference value :  5.50023e-06
 Reference value :  5.50036e-06
 Reference value :  5.50062e-06
 Reference value :  5.50109e-06
 Reference value :  5.50174e-06
 Reference value :  5.50246e-06
 Reference value :  5.50308e-06
 Reference value :  5.50385e-06
 Reference value :  5.50481e-06
 Reference value :  5.50576e-06
 Reference value :  5.50670e-06
 Reference value :  5.50777e-06
 Reference value :  5.50921e-06
 Reference value :  5.51077e-06
 Reference value :  5.51230e-06
 Reference value :  5.51365e-06
 Reference value :  5.51516e-06
 Reference value :  5.51685e-06
 Reference value :  5.51860e-06
 Reference value :  5.52209e-06
 Reference value :  5.52699e-06
 Reference value :  5.53673e-06
 Reference value :  5.55411e-06
 Reference value :  5.58513e-06
 Reference value :  5.64351e-06
 Reference value :  5.75010e-06
 Reference value :  5.75011e-06
 Reference value :  5.75013e-06
 Reference value :  5.75017e-06
 Reference value :  5.75020e-06
 Reference value :  5.75020e-06
 Reference value :  5.75020e-06
 Reference value :  5.75020e-06
 Reference value :  5.75021e-06
 Reference value :  5.75022e-06
 Reference value :  5.75023e-06
 Reference value :  5.75027e-06
 Reference value :  5.75033e-06
 Reference value :  5.75041e-06
 Reference value :  5.75058e-06
 Reference value :  5.75077e-06
 Reference value :  5.75108e-06
 Reference value :  5.75170e-06
 Reference value :  5.75233e-06
 Reference value :  5.75303e-06
 Reference value :  5.75376e-06
 Reference value :  5.75470e-06
 Reference value :  5.75573e-06
 Reference value :  5.75648e-06
 Reference value :  5.75736e-06
 Reference value :  5.75836e-06
 Reference value :  5.75928e-06
 Reference value :  5.76040e-06
 Reference value :  5.76162e-06
 Reference value :  5.76311e-06
 Reference value :  5.76466e-06
 Reference value :  5.76686e-06
 Reference value :  5.76933e-06
 Reference value :  5.77352e-06
 Reference value :  5.78113e-06
 Reference value :  5.79275e-06
 Reference value :  5.81418e-06
 Reference value :  5.84945e-06
 Reference value :  5.91034e-06
 Reference value :  6.00000e-06
 Reference value :  6.00001e-06
 Reference value :  6.00003e-06
 Reference value :  6.00007e-06
 Reference value :  6.00010e-06
 Reference value :  6.00010e-06
 Reference value :  6.00010e-06
 Reference value :  6.00010e-06
 Reference value :  6.00011e-06
 Reference value :  6.00012e-06
 Reference value :  6.00013e-06
 Reference value :  6.00017e-06
 Reference value :  6.00023e-06
 Reference value :  6.00036e-06
 Reference value :  6.00062e-06
 Reference value :  6.00109e-06
 Reference value :  6.00174e-06
 Reference value :  6.00246e-06
 Reference value :  6.00309e-06
 Reference value :  6.00385e-06
 Reference value :  6.00482e-06
 Reference value :  6.00571e-06
 Reference value :  6.00666e-06
 Reference value :  6.00761e-06
 Reference value :  6.00855e-06
 Reference value :  6.00956e-06
 Reference value :  6.01080e-06
 Reference value :  6.01201e-06
 Reference value :  6.01443e-06
 Reference value :  6.01700e-06
 Reference value :  6.01890e-06
 Reference value :  6.02104e-06
 Reference value :  6.02328e-06
 Reference value :  6.02588e-06
 Reference value :  6.02795e-06
 Reference value :  6.02947e-06
 Reference value :  6.03110e-06
 Reference value :  6.03295e-06
 Reference value :  6.03496e-06
 Reference value :  6.03711e-06
 Reference value :  6.04016e-06
 Reference value :  6.04442e-06
 Reference value :  6.05037e-06
 Reference value :  6.05750e-06
 Reference value :  6.06781e-06
 Reference value :  6.08164e-06
 Reference value :  6.10932e-06
 Reference value :  6.13854e-06
 Reference value :  6.17322e-06
 Reference value :  6.21520e-06
 Reference value :  6.25010e-06
 Reference value :  6.25011e-06
 Reference value :  6.25013e-06
 Reference value :  6.25017e-06
 Reference value :  6.25020e-06
 Reference value :  6.25020e-06
 Reference value :  6.25020e-06
 Reference value :  6.25020e-06
 Reference value :  6.25021e-06
 Reference value :  6.25022e-06
 Reference value :  6.25023e-06
 Reference value :  6.25027e-06
 Reference value :  6.25033e-06
 Reference value :  6.25041e-06
 Reference value :  6.25058e-06
 Reference value :  6.25076e-06
 Reference value :  6.25106e-06
 Reference value :  6.25166e-06
 Reference value :  6.25229e-06
 Reference value :  6.25299e-06
 Reference value :  6.25371e-06
 Reference value :  6.25464e-06
 Reference value :  6.25566e-06
 Reference value :  6.25692e-06
 Reference value :  6.25796e-06
 Reference value :  6.25906e-06
 Reference value :  6.26024e-06
 Reference value :  6.26206e-06
 Reference value :  6.26390e-06
 Reference value :  6.26746e-06
 Reference value :  6.27266e-06
 Reference value :  6.28170e-06
 Reference value :  6.29867e-06
 Reference value :  6.32763e-06
 Reference value :  6.38286e-06
 Reference value :  6.43021e-06
 Reference value :  6.48981e-06
 Reference value :  6.50000e-06
 Reference value :  6.50001e-06
 Reference value :  6.50003e-06
 Reference value :  6.50007e-06
 Reference value :  6.50010e-06
 Reference value :  6.50010e-06
 Reference value :  6.50010e-06
 Reference value :  6.50010e-06
 Reference value :  6.50011e-06
 Reference value :  6.50012e-06
 Reference value :  6.50013e-06
 Reference value :  6.50017e-06
 Reference value :  6.50023e-06
 Reference value :  6.50036e-06
 Reference value :  6.50062e-06
 Reference value :  6.50109e-06
 Reference value :  6.50174e-06
 Reference value :  6.50246e-06
 Reference value :  6.50308e-06
 Reference value :  6.50385e-06
 Reference value :  6.50480e-06
 Reference value :  6.50576e-06
 Reference value :  6.50669e-06
 Reference value :  6.50774e-06
 Reference value :  6.50885e-06
 Reference value :  6.51078e-06
 Reference value :  6.51257e-06
 Reference value :  6.51403e-06
 Reference value :  6.51566e-06
 Reference value :  6.51748e-06
 Reference value :  6.51946e-06
 Reference value :  6.52302e-06
 Reference value :  6.52796e-06
 Reference value :  6.53706e-06
 Reference value :  6.55213e-06
 Reference value :  6.58228e-06
 Reference value :  6.63689e-06
 Reference value :  6.74069e-06
 Reference value :  6.75010e-06
 Reference value :  6.75011e-06
 Reference value :  6.75013e-06
 Reference value :  6.75017e-06
 Reference value :  6.75020e-06
 Reference value :  6.75020e-06
 Reference value :  6.75020e-06
 Reference value :  6.75020e-06
 Reference value :  6.75021e-06
 Reference value :  6.75022e-06
 Reference value :  6.75023e-06
 Reference value :  6.75027e-06
 Reference value :  6.75033e-06
 Reference value :  6.75041e-06
 Reference value :  6.75058e-06
 Reference value :  6.75080e-06
 Reference value :  6.75107e-06
 Reference value :  6.75163e-06
 Reference value :  6.75225e-06
 Reference value :  6.75292e-06
 Reference value :  6.75364e-06
 Reference value :  6.75457e-06
 Reference value :  6.75558e-06
 Reference value :  6.75681e-06
 Reference value :  6.75777e-06
 Reference value :  6.75881e-06
 Reference value :  6.75984e-06
 Reference value :  6.76095e-06
 Reference value :  6.76217e-06
 Reference value :  6.76348e-06
 Reference value :  6.76497e-06
 Reference value :  6.76746e-06
 Reference value :  6.77013e-06
 Reference value :  6.77422e-06
 Reference value :  6.78052e-06
 Reference value :  6.79313e-06
 Reference value :  6.81804e-06
 Reference value :  6.86325e-06
 Reference value :  6.95367e-06
 Reference value :  7.00000e-06
 Reference value :  7.00001e-06
 Reference value :  7.00003e-06
 Reference value :  7.00007e-06
 Reference value :  7.00010e-06
 Reference value :  7.00010e-06
 Reference value :  7.00010e-06
 Reference value :  7.00010e-06
 Reference value :  7.00011e-06
 Reference value :  7.00012e-06
 Reference value :  7.00013e-06
 Reference value :  7.00017e-06
 Reference value :  7.00023e-06
 Reference value :  7.00036e-06
 Reference value :  7.00062e-06
 Reference value :  7.00109e-06
 Reference value :  7.00174e-06
 Reference value :  7.00246e-06
 Reference value :  7.00308e-06
 Reference value :  7.00385e-06
 Reference value :  7.00481e-06
 Reference value :  7.00571e-06
 Reference value :  7.00665e-06
 Reference value :  7.00738e-06
 Reference value :  7.00823e-06
 Reference value :  7.00909e-06
 Reference value :  7.00995e-06
 Reference value :  7.01104e-06
 Reference value :  7.01222e-06
 Reference value :  7.01456e-06
 Reference value :  7.01757e-06
 Reference value :  7.01960e-06
 Reference value :  7.02191e-06
 Reference value :  7.02387e-06
 Reference value :  7.02613e-06
 Reference value :  7.02795e-06
 Reference value :  7.02988e-06
 Reference value :  7.03161e-06
 Reference value :  7.03342e-06
 Reference value :  7.03568e-06
 Reference value :  7.03747e-06
 Reference value :  7.03945e-06
 Reference value :  7.04166e-06
 Reference value :  7.04409e-06
 Reference value :  7.04894e-06
 Reference value :  7.05631e-06
 Reference value :  7.06427e-06
 Reference value :  7.07292e-06
 Reference value :  7.09021e-06
 Reference value :  7.12479e-06
 Reference value :  7.19086e-06
 Reference value :  7.25010e-06
 Reference value :  7.25011e-06
 Reference value :  7.25013e-06
 Reference value :  7.25017e-06
 Reference value :  7.25020e-06
 Reference value :  7.25020e-06
 Reference value :  7.25020e-06
 Reference value :  7.25020e-06
 Reference value :  7.25021e-06
 Reference value :  7.25022e-06
 Reference value :  7.25023e-06
 Reference value :  7.25027e-06
 Reference value :  7.25033e-06
 Reference value :  7.25042e-06
 Reference value :  7.25059e-06
 Reference value :  7.25077e-06
 Reference value :  7.25107e-06
 Reference value :  7.25167e-06
 Reference value :  7.25229e-06
 Reference value :  7.25299e-06
 Reference value :  7.25372e-06
 Reference value :  7.25465e-06
 Reference value :  7.25566e-06
 Reference value :  7.25662e-06
 Reference value :  7.25771e-06
 Reference value :  7.25883e-06
 Reference value :  7.25993e-06
 Reference value :  7.26169e-06
 Reference value :  7.26363e-06
 Reference value :  7.26725e-06
 Reference value :  7.27229e-06
 Reference value :  7.28238e-06
 Reference value :  7.30078e-06
 Reference value :  7.33576e-06
 Reference value :  7.40572e-06
 Reference value :  7.50000e-06
 Reference value :  7.50001e-06
 Reference value :  7.50003e-06
 Reference value :  7.50007e-06
 Reference value :  7.50010e-06
 Reference value :  7.50010e-06
 Reference value :  7.50010e-06
 Reference value :  7.50010e-06
 Reference value :  7.50011e-06
 Reference value :  7.50012e-06
 Reference value :  7.50013e-06
 Reference value :  7.50017e-06
 Reference value :  7.50023e-06
 Reference value :  7.50036e-06
 Reference value :  7.50062e-06
 Reference value :  7.50109e-06
 Reference value :  7.50171e-06
 Reference value :  7.50245e-06
 Reference value :  7.50308e-06
 Reference value :  7.50385e-06
 Reference value :  7.50479e-06
 Reference value :  7.50576e-06
 Reference value :  7.50668e-06
 Reference value :  7.50785e-06
 Reference value :  7.50906e-06
 Reference value :  7.51091e-06
 Reference value :  7.51293e-06
 Reference value :  7.51464e-06
 Reference value :  7.51644e-06
 Reference value :  7.51877e-06
 Reference value :  7.52117e-06
 Reference value :  7.52528e-06
 Reference value :  7.53093e-06
 Reference value :  7.54032e-06
 Reference value :  7.55647e-06
 Reference value :  7.58233e-06
 Reference value :  7.63030e-06
 Reference value :  7.71670e-06
 Reference value :  7.75010e-06
 Reference value :  7.75011e-06
 Reference value :  7.75013e-06
 Reference value :  7.75017e-06
 Reference value :  7.75020e-06
 Reference value :  7.75020e-06
 Reference value :  7.75020e-06
 Reference value :  7.75020e-06
 Reference value :  7.75021e-06
 Reference value :  7.75022e-06
 Reference value :  7.75023e-06
 Reference value :  7.75027e-06
 Reference value :  7.75033e-06
 Reference value :  7.75042e-06
 Reference value :  7.75059e-06
 Reference value :  7.75082e-06
 Reference value :  7.75109e-06
 Reference value :  7.75165e-06
 Reference value :  7.75226e-06
 Reference value :  7.75292e-06
 Reference value :  7.75365e-06
 Reference value :  7.75457e-06
 Reference value :  7.75558e-06
 Reference value :  7.75658e-06
 Reference value :  7.75763e-06
 Reference value :  7.75858e-06
 Reference value :  7.75957e-06
 Reference value :  7.76064e-06
 Reference value :  7.76189e-06
 Reference value :  7.76438e-06
 Reference value :  7.76855e-06
 Reference value :  7.77499e-06
 Reference value :  7.78788e-06
 Reference value :  7.81366e-06
 Reference value :  7.86523e-06
 Reference value :  7.96835e-06
 Reference value :  8.00000e-06
 Reference value :  8.00001e-06
 Reference value :  8.00003e-06
 Reference value :  8.00007e-06
 Reference value :  8.00010e-06
 Reference value :  8.00010e-06
 Reference value :  8.00010e-06
 Reference value :  8.00010e-06
 Reference value :  8.00011e-06
 Reference value :  8.00012e-06
 Reference value :  8.00013e-06
 Reference value :  8.00017e-06
 Reference value :  8.00023e-06
 Reference value :  8.00036e-06
 Reference value :  8.00062e-06
 Reference value :  8.00109e-06
 Reference value :  8.00171e-06
 Reference value :  8.00245e-06
 Reference value :  8.00308e-06
 Reference value :  8.00385e-06
 Reference value :  8.00482e-06
 Reference value :  8.00575e-06
 Reference value :  8.00670e-06
 Reference value :  8.00756e-06
 Reference value :  8.00851e-06
 Reference value :  8.00954e-06
 Reference value :  8.01070e-06
 Reference value :  8.01243e-06
 Reference value :  8.01396e-06
 Reference value :  8.01557e-06
 Reference value :  8.01723e-06
 Reference value :  8.01905e-06
 Reference value :  8.02267e-06
 Reference value :  8.02810e-06
 Reference value :  8.03698e-06
 Reference value :  8.05472e-06
 Reference value :  8.09021e-06
 Reference value :  8.16118e-06
 Reference value :  8.25010e-06
 Reference value :  8.25011e-06
 Reference value :  8.25013e-06
 Reference value :  8.25017e-06
 Reference value :  8.25020e-06
 Reference value :  8.25020e-06
 Reference value :  8.25020e-06
 Reference value :  8.25020e-06
 Reference value :  8.25021e-06
 Reference value :  8.25022e-06
 Reference value :  8.25023e-06
 Reference value :  8.25027e-06
 Reference value :  8.25033e-06
 Reference value :  8.25047e-06
 Reference value :  8.25064e-06
 Reference value :  8.25085e-06
 Reference value :  8.25127e-06
 Reference value :  8.25193e-06
 Reference value :  8.25261e-06
 Reference value :  8.25331e-06
 Reference value :  8.25422e-06
 Reference value :  8.25545e-06
 Reference value :  8.25660e-06
 Reference value :  8.25789e-06
 Reference value :  8.25953e-06
 Reference value :  8.26158e-06
 Reference value :  8.26424e-06
 Reference value :  8.26765e-06
 Reference value :  8.27257e-06
 Reference value :  8.28243e-06
 Reference value :  8.29636e-06
 Reference value :  8.32421e-06
 Reference value :  8.37991e-06
 Reference value :  8.48508e-06
 Reference value :  8.50000e-06
No. of Data Rows : 1414
ngspice-44 done
