
Note: Compatibility modes selected: hs a


Circuit: ** sch_path: /home/ece/cace/sar-adc-using-sky130-pdk/runs/run_2025-09-12_21-21-39/parameters/dnl/run_4/sar_output_dnl.sch

option SCALE: Scale is set to 1e-06 for instance and model parameters
option SCALE: Scale is set to 1e-06 for instance and model parameters
option SCALE: Scale is set to 1e-06 for instance and model parameters
option SCALE: Scale is set to 1e-06 for instance and model parameters
Doing analysis at TEMP = 27.000000 and TNOM = 27.000000

Using KLU as Direct Linear Solver
Operating point simulation skipped by 'uic',
  now using transient initial conditions.
 Reference value :  1.00000e-12
 Reference value :  1.08400e-12
 Reference value :  2.24093e-12
 Reference value :  9.36715e-12
 Reference value :  5.61384e-11
 Reference value :  1.04817e-10
 Reference value :  1.33720e-10
 Reference value :  4.03480e-10
 Reference value :  9.64292e-10
 Reference value :  1.92142e-09
 Reference value :  3.32069e-09
 Reference value :  5.06627e-09
 Reference value :  7.17294e-09
 Reference value :  8.29447e-09
 Reference value :  8.97525e-09
 Reference value :  1.06989e-08
 Reference value :  1.26263e-08
 Reference value :  1.35683e-08
 Reference value :  1.52687e-08
 Reference value :  1.73284e-08
 Reference value :  2.20719e-08
 Reference value :  2.63595e-08
 Reference value :  3.49367e-08
 Reference value :  5.28603e-08
 Reference value :  1.09484e-07
 Reference value :  2.50110e-07
 Reference value :  2.50170e-07
 Reference value :  2.50223e-07
 Reference value :  2.50379e-07
 Reference value :  2.50915e-07
 Reference value :  2.51636e-07
 Reference value :  2.53418e-07
 Reference value :  2.54619e-07
 Reference value :  2.56689e-07
 Reference value :  2.63916e-07
 Reference value :  3.36014e-07
 Reference value :  5.00030e-07
 Reference value :  5.00108e-07
 Reference value :  5.00220e-07
 Reference value :  5.00825e-07
 Reference value :  5.01758e-07
 Reference value :  5.02683e-07
 Reference value :  5.03858e-07
 Reference value :  5.05211e-07
 Reference value :  5.07341e-07
 Reference value :  5.10263e-07
 Reference value :  5.13079e-07
 Reference value :  5.16412e-07
 Reference value :  5.23449e-07
 Reference value :  5.64029e-07
 Reference value :  7.50110e-07
 Reference value :  7.50200e-07
 Reference value :  7.50318e-07
 Reference value :  7.50948e-07
 Reference value :  7.51856e-07
 Reference value :  7.53028e-07
 Reference value :  7.54422e-07
 Reference value :  7.55803e-07
 Reference value :  7.57551e-07
 Reference value :  7.72873e-07
 Reference value :  8.46413e-07
 Reference value :  1.00003e-06
 Reference value :  1.00012e-06
 Reference value :  1.00034e-06
 Reference value :  1.00128e-06
 Reference value :  1.00219e-06
 Reference value :  1.00391e-06
 Reference value :  1.00499e-06
 Reference value :  1.00609e-06
 Reference value :  1.00843e-06
 Reference value :  1.01142e-06
 Reference value :  1.01388e-06
 Reference value :  1.01708e-06
 Reference value :  1.02106e-06
 Reference value :  1.05862e-06
 Reference value :  1.09263e-06
 Reference value :  1.11207e-06
 Reference value :  1.13474e-06
 Reference value :  1.21639e-06
 Reference value :  1.25017e-06
 Reference value :  1.25032e-06
 Reference value :  1.25138e-06
 Reference value :  1.25374e-06
 Reference value :  1.25676e-06
 Reference value :  1.27340e-06
 Reference value :  1.41738e-06
 Reference value :  1.50007e-06
 Reference value :  1.50012e-06
 Reference value :  1.50034e-06
 Reference value :  1.50129e-06
 Reference value :  1.50218e-06
 Reference value :  1.50395e-06
 Reference value :  1.50554e-06
 Reference value :  1.50734e-06
 Reference value :  1.50903e-06
 Reference value :  1.51484e-06
 Reference value :  1.58458e-06
 Reference value :  1.75013e-06
 Reference value :  1.75021e-06
 Reference value :  1.75032e-06
 Reference value :  1.75068e-06
 Reference value :  1.75138e-06
 Reference value :  1.75302e-06
 Reference value :  1.75440e-06
 Reference value :  1.75672e-06
 Reference value :  1.75844e-06
 Reference value :  1.76216e-06
 Reference value :  1.77537e-06
 Reference value :  1.85165e-06
 Reference value :  2.00001e-06
 Reference value :  2.00007e-06
 Reference value :  2.00011e-06
 Reference value :  2.00016e-06
 Reference value :  2.00034e-06
 Reference value :  2.00083e-06
 Reference value :  2.00128e-06
 Reference value :  2.00219e-06
 Reference value :  2.00329e-06
 Reference value :  2.00441e-06
 Reference value :  2.00556e-06
 Reference value :  2.00756e-06
 Reference value :  2.01071e-06
 Reference value :  2.01369e-06
 Reference value :  2.01645e-06
 Reference value :  2.02130e-06
 Reference value :  2.07375e-06
 Reference value :  2.10356e-06
 Reference value :  2.12933e-06
 Reference value :  2.24218e-06
 Reference value :  2.25017e-06
 Reference value :  2.25032e-06
 Reference value :  2.25138e-06
 Reference value :  2.25378e-06
 Reference value :  2.25439e-06
 Reference value :  2.25571e-06
 Reference value :  2.25761e-06
 Reference value :  2.27277e-06
 Reference value :  2.41305e-06
 Reference value :  2.50007e-06
 Reference value :  2.50012e-06
 Reference value :  2.50034e-06
 Reference value :  2.50128e-06
 Reference value :  2.50219e-06
 Reference value :  2.50382e-06
 Reference value :  2.50616e-06
 Reference value :  2.50818e-06
 Reference value :  2.51158e-06
 Reference value :  2.52855e-06
 Reference value :  2.75010e-06
 Reference value :  2.75017e-06
 Reference value :  2.75032e-06
 Reference value :  2.75094e-06
 Reference value :  2.75185e-06
 Reference value :  2.75377e-06
 Reference value :  2.75506e-06
 Reference value :  2.75759e-06
 Reference value :  2.77281e-06
 Reference value :  3.00000e-06
 Reference value :  3.00010e-06
 Reference value :  3.00022e-06
 Reference value :  3.00083e-06
 Reference value :  3.00219e-06
 Reference value :  3.00329e-06
 Reference value :  3.00440e-06
 Reference value :  3.00557e-06
 Reference value :  3.00671e-06
 Reference value :  3.00999e-06
 Reference value :  3.01280e-06
 Reference value :  3.01389e-06
 Reference value :  3.01603e-06
 Reference value :  3.01707e-06
 Reference value :  3.02105e-06
 Reference value :  3.02517e-06
 Reference value :  3.02987e-06
 Reference value :  3.03547e-06
 Reference value :  3.04069e-06
 Reference value :  3.04642e-06
 Reference value :  3.05741e-06
 Reference value :  3.07716e-06
 Reference value :  3.20648e-06
 Reference value :  3.25017e-06
 Reference value :  3.25026e-06
 Reference value :  3.25069e-06
 Reference value :  3.25138e-06
 Reference value :  3.25302e-06
 Reference value :  3.25509e-06
 Reference value :  3.25941e-06
 Reference value :  3.30580e-06
 Reference value :  3.50003e-06
 Reference value :  3.50011e-06
 Reference value :  3.50022e-06
 Reference value :  3.50083e-06
 Reference value :  3.50129e-06
 Reference value :  3.50218e-06
 Reference value :  3.50395e-06
 Reference value :  3.50553e-06
 Reference value :  3.50734e-06
 Reference value :  3.50903e-06
 Reference value :  3.51241e-06
 Reference value :  3.65946e-06
 Reference value :  3.75020e-06
 Reference value :  3.75068e-06
 Reference value :  3.75185e-06
 Reference value :  3.75376e-06
 Reference value :  3.75576e-06
 Reference value :  3.75842e-06
 Reference value :  3.76486e-06
 Reference value :  3.84897e-06
 Reference value :  4.00007e-06
 Reference value :  4.00022e-06
 Reference value :  4.00128e-06
 Reference value :  4.00268e-06
 Reference value :  4.00441e-06
 Reference value :  4.00556e-06
 Reference value :  4.00670e-06
 Reference value :  4.01071e-06
 Reference value :  4.01369e-06
 Reference value :  4.01645e-06
 Reference value :  4.01963e-06
 Reference value :  4.03195e-06
 Reference value :  4.04821e-06
 Reference value :  4.06988e-06
 Reference value :  4.08739e-06
 Reference value :  4.11423e-06
 Reference value :  4.17861e-06
 Reference value :  4.25013e-06
 Reference value :  4.25032e-06
 Reference value :  4.25138e-06
 Reference value :  4.25302e-06
 Reference value :  4.25436e-06
 Reference value :  4.25662e-06
 Reference value :  4.27238e-06
 Reference value :  4.50000e-06
 Reference value :  4.50007e-06
 Reference value :  4.50016e-06
 Reference value :  4.50083e-06
 Reference value :  4.50176e-06
 Reference value :  4.50332e-06
 Reference value :  4.50473e-06
 Reference value :  4.50734e-06
 Reference value :  4.50903e-06
 Reference value :  4.51241e-06
 Reference value :  4.52891e-06
 Reference value :  4.65983e-06
 Reference value :  4.75013e-06
 Reference value :  4.75022e-06
 Reference value :  4.75044e-06
 Reference value :  4.75138e-06
 Reference value :  4.75302e-06
 Reference value :  4.75439e-06
 Reference value :  4.75670e-06
 Reference value :  4.75842e-06
 Reference value :  4.76214e-06
 Reference value :  4.77523e-06
 Reference value :  4.84790e-06
 Reference value :  5.00001e-06
 Reference value :  5.00007e-06
 Reference value :  5.00016e-06
 Reference value :  5.00034e-06
 Reference value :  5.00128e-06
 Reference value :  5.00219e-06
 Reference value :  5.00391e-06
 Reference value :  5.00441e-06
 Reference value :  5.00556e-06
 Reference value :  5.00670e-06
 Reference value :  5.00973e-06
 Reference value :  5.01174e-06
 Reference value :  5.01368e-06
 Reference value :  5.01555e-06
 Reference value :  5.01757e-06
 Reference value :  5.01996e-06
 Reference value :  5.02763e-06
 Reference value :  5.03152e-06
 Reference value :  5.03901e-06
 Reference value :  5.04782e-06
 Reference value :  5.05954e-06
 Reference value :  5.07240e-06
 Reference value :  5.08225e-06
 Reference value :  5.09687e-06
 Reference value :  5.11197e-06
 Reference value :  5.17895e-06
 Reference value :  5.21931e-06
 Reference value :  5.25011e-06
 Reference value :  5.25017e-06
 Reference value :  5.25026e-06
 Reference value :  5.25044e-06
 Reference value :  5.25094e-06
 Reference value :  5.25138e-06
 Reference value :  5.25302e-06
 Reference value :  5.25436e-06
 Reference value :  5.25661e-06
 Reference value :  5.26136e-06
 Reference value :  5.30451e-06
 Reference value :  5.50001e-06
 Reference value :  5.50010e-06
 Reference value :  5.50022e-06
 Reference value :  5.50129e-06
 Reference value :  5.50265e-06
 Reference value :  5.50395e-06
 Reference value :  5.50553e-06
 Reference value :  5.50734e-06
 Reference value :  5.50903e-06
 Reference value :  5.51241e-06
 Reference value :  5.54761e-06
 Reference value :  5.75011e-06
 Reference value :  5.75020e-06
 Reference value :  5.75026e-06
 Reference value :  5.75044e-06
 Reference value :  5.75094e-06
 Reference value :  5.75185e-06
 Reference value :  5.75302e-06
 Reference value :  5.75439e-06
 Reference value :  5.75576e-06
 Reference value :  5.75757e-06
 Reference value :  5.75933e-06
 Reference value :  5.76484e-06
 Reference value :  5.80736e-06
 Reference value :  6.00000e-06
 Reference value :  6.00003e-06
 Reference value :  6.00011e-06
 Reference value :  6.00016e-06
 Reference value :  6.00034e-06
 Reference value :  6.00128e-06
 Reference value :  6.00219e-06
 Reference value :  6.00329e-06
 Reference value :  6.00441e-06
 Reference value :  6.00556e-06
 Reference value :  6.00609e-06
 Reference value :  6.00756e-06
 Reference value :  6.00973e-06
 Reference value :  6.01071e-06
 Reference value :  6.01285e-06
 Reference value :  6.01368e-06
 Reference value :  6.01554e-06
 Reference value :  6.01756e-06
 Reference value :  6.01993e-06
 Reference value :  6.02367e-06
 Reference value :  6.03951e-06
 Reference value :  6.07053e-06
 Reference value :  6.15004e-06
 Reference value :  6.25011e-06
 Reference value :  6.25021e-06
 Reference value :  6.25032e-06
 Reference value :  6.25094e-06
 Reference value :  6.25185e-06
 Reference value :  6.25302e-06
 Reference value :  6.25436e-06
 Reference value :  6.25567e-06
 Reference value :  6.25910e-06
 Reference value :  6.28364e-06
 Reference value :  6.40508e-06
 Reference value :  6.50003e-06
 Reference value :  6.50011e-06
 Reference value :  6.50022e-06
 Reference value :  6.50083e-06
 Reference value :  6.50176e-06
 Reference value :  6.50265e-06
 Reference value :  6.50395e-06
 Reference value :  6.50553e-06
 Reference value :  6.50734e-06
 Reference value :  6.50903e-06
 Reference value :  6.51241e-06
 Reference value :  6.54763e-06
 Reference value :  6.75011e-06
 Reference value :  6.75021e-06
 Reference value :  6.75044e-06
 Reference value :  6.75138e-06
 Reference value :  6.75302e-06
 Reference value :  6.75439e-06
 Reference value :  6.75669e-06
 Reference value :  6.75842e-06
 Reference value :  6.76214e-06
 Reference value :  6.78719e-06
 Reference value :  7.00000e-06
 Reference value :  7.00007e-06
 Reference value :  7.00011e-06
 Reference value :  7.00022e-06
 Reference value :  7.00083e-06
 Reference value :  7.00176e-06
 Reference value :  7.00268e-06
 Reference value :  7.00391e-06
 Reference value :  7.00499e-06
 Reference value :  7.00556e-06
 Reference value :  7.00756e-06
 Reference value :  7.01072e-06
 Reference value :  7.01286e-06
 Reference value :  7.01554e-06
 Reference value :  7.01881e-06
 Reference value :  7.02370e-06
 Reference value :  7.04866e-06
 Reference value :  7.25011e-06
 Reference value :  7.25032e-06
 Reference value :  7.25138e-06
 Reference value :  7.25375e-06
 Reference value :  7.25567e-06
 Reference value :  7.26528e-06
 Reference value :  7.50001e-06
 Reference value :  7.50012e-06
 Reference value :  7.50129e-06
 Reference value :  7.50332e-06
 Reference value :  7.50553e-06
 Reference value :  7.50817e-06
 Reference value :  7.51241e-06
 Reference value :  7.66017e-06
 Reference value :  7.75021e-06
 Reference value :  7.75068e-06
 Reference value :  7.75185e-06
 Reference value :  7.75376e-06
 Reference value :  7.75576e-06
 Reference value :  7.75842e-06
 Reference value :  7.76483e-06
 Reference value :  7.84674e-06
 Reference value :  8.00003e-06
 Reference value :  8.00012e-06
 Reference value :  8.00034e-06
 Reference value :  8.00128e-06
 Reference value :  8.00219e-06
 Reference value :  8.00391e-06
 Reference value :  8.00499e-06
 Reference value :  8.00609e-06
 Reference value :  8.00927e-06
 Reference value :  8.01288e-06
 Reference value :  8.02356e-06
 Reference value :  8.04393e-06
 Reference value :  8.07616e-06
 Reference value :  8.25010e-06
 Reference value :  8.25022e-06
 Reference value :  8.25095e-06
 Reference value :  8.25237e-06
 Reference value :  8.25387e-06
 Reference value :  8.25789e-06
 Reference value :  8.26492e-06
 Reference value :  8.32553e-06
 Reference value :  8.50000e-06
 Reference value :  8.50000e-06
 Reference value :  8.50000e-06
 Reference value :  8.50001e-06
 Reference value :  8.50008e-06
 Reference value :  8.50012e-06
 Reference value :  8.50027e-06
 Reference value :  8.50119e-06
 Reference value :  8.50170e-06
 Reference value :  8.50268e-06
 Reference value :  8.50475e-06
 Reference value :  8.50540e-06
 Reference value :  8.50682e-06
 Reference value :  8.51420e-06
 Reference value :  8.52751e-06
 Reference value :  8.53221e-06
 Reference value :  8.53611e-06
 Reference value :  8.54431e-06
 Reference value :  8.56038e-06
 Reference value :  8.59032e-06
 Reference value :  8.66373e-06
 Reference value :  8.75011e-06
 Reference value :  8.75020e-06
 Reference value :  8.75026e-06
 Reference value :  8.75069e-06
 Reference value :  8.75138e-06
 Reference value :  8.75236e-06
 Reference value :  8.75377e-06
 Reference value :  8.75505e-06
 Reference value :  8.75763e-06
 Reference value :  8.76551e-06
 Reference value :  8.83997e-06
 Reference value :  9.00001e-06
 Reference value :  9.00010e-06
 Reference value :  9.00016e-06
 Reference value :  9.00034e-06
 Reference value :  9.00083e-06
 Reference value :  9.00128e-06
 Reference value :  9.00219e-06
 Reference value :  9.00323e-06
 Reference value :  9.00442e-06
 Reference value :  9.00617e-06
 Reference value :  9.00888e-06
 Reference value :  9.01006e-06
 Reference value :  9.01271e-06
 Reference value :  9.01562e-06
 Reference value :  9.01912e-06
 Reference value :  9.03195e-06
 Reference value :  9.15101e-06
 Reference value :  9.25013e-06
 Reference value :  9.25020e-06
 Reference value :  9.25022e-06
 Reference value :  9.25044e-06
 Reference value :  9.25094e-06
 Reference value :  9.25138e-06
 Reference value :  9.25235e-06
 Reference value :  9.25376e-06
 Reference value :  9.25506e-06
 Reference value :  9.25759e-06
 Reference value :  9.26549e-06
 Reference value :  9.30487e-06
 Reference value :  9.50000e-06
 Reference value :  9.50007e-06
 Reference value :  9.50012e-06
 Reference value :  9.50034e-06
 Reference value :  9.50128e-06
 Reference value :  9.50219e-06
 Reference value :  9.50329e-06
 Reference value :  9.50441e-06
 Reference value :  9.50557e-06
 Reference value :  9.50671e-06
 Reference value :  9.50996e-06
 Reference value :  9.51277e-06
 Reference value :  9.51493e-06
 Reference value :  9.51707e-06
 Reference value :  9.51939e-06
 Reference value :  9.52615e-06
 Reference value :  9.54097e-06
 Reference value :  9.57709e-06
 Reference value :  9.60450e-06
 Reference value :  9.62042e-06
 Reference value :  9.66247e-06
 Reference value :  9.75011e-06
 Reference value :  9.75020e-06
 Reference value :  9.75032e-06
 Reference value :  9.75094e-06
 Reference value :  9.75185e-06
 Reference value :  9.75373e-06
 Reference value :  9.75578e-06
 Reference value :  9.76183e-06
 Reference value :  9.80454e-06
 Reference value :  1.00000e-05
 Reference value :  1.00001e-05
 Reference value :  1.00002e-05
 Reference value :  1.00008e-05
 Reference value :  1.00022e-05
 Reference value :  1.00039e-05
 Reference value :  1.00066e-05
 Reference value :  1.00082e-05
 Reference value :  1.00112e-05
 Reference value :  1.00289e-05
 Reference value :  1.02501e-05
 Reference value :  1.02502e-05
 Reference value :  1.02503e-05
 Reference value :  1.02509e-05
 Reference value :  1.02518e-05
 Reference value :  1.02538e-05
 Reference value :  1.02550e-05
 Reference value :  1.02567e-05
 Reference value :  1.02584e-05
 Reference value :  1.02621e-05
 Reference value :  1.02752e-05
 Reference value :  1.04256e-05
 Reference value :  1.05000e-05
 Reference value :  1.05001e-05
 Reference value :  1.05003e-05
 Reference value :  1.05013e-05
 Reference value :  1.05022e-05
 Reference value :  1.05033e-05
 Reference value :  1.05044e-05
 Reference value :  1.05056e-05
 Reference value :  1.05067e-05
 Reference value :  1.05097e-05
 Reference value :  1.05107e-05
 Reference value :  1.05128e-05
 Reference value :  1.05145e-05
 Reference value :  1.05165e-05
 Reference value :  1.05187e-05
 Reference value :  1.05215e-05
 Reference value :  1.05319e-05
 Reference value :  1.05704e-05
 Reference value :  1.05991e-05
 Reference value :  1.06088e-05
 Reference value :  1.06257e-05
 Reference value :  1.06627e-05
 Reference value :  1.07270e-05
 Reference value :  1.07501e-05
 Reference value :  1.07502e-05
 Reference value :  1.07503e-05
 Reference value :  1.07507e-05
 Reference value :  1.07514e-05
 Reference value :  1.07530e-05
 Reference value :  1.07544e-05
 Reference value :  1.07567e-05
 Reference value :  1.07614e-05
 Reference value :  1.08050e-05
 Reference value :  1.10000e-05
 Reference value :  1.10001e-05
 Reference value :  1.10001e-05
 Reference value :  1.10003e-05
 Reference value :  1.10013e-05
 Reference value :  1.10022e-05
 Reference value :  1.10032e-05
 Reference value :  1.10044e-05
 Reference value :  1.10062e-05
 Reference value :  1.10082e-05
 Reference value :  1.10116e-05
 Reference value :  1.10287e-05
 Reference value :  1.12501e-05
 Reference value :  1.12502e-05
 Reference value :  1.12503e-05
 Reference value :  1.12507e-05
 Reference value :  1.12514e-05
 Reference value :  1.12530e-05
 Reference value :  1.12544e-05
 Reference value :  1.12567e-05
 Reference value :  1.12614e-05
 Reference value :  1.13049e-05
 Reference value :  1.15000e-05
 Reference value :  1.15001e-05
 Reference value :  1.15002e-05
 Reference value :  1.15008e-05
 Reference value :  1.15018e-05
 Reference value :  1.15027e-05
 Reference value :  1.15039e-05
 Reference value :  1.15050e-05
 Reference value :  1.15061e-05
 Reference value :  1.15084e-05
 Reference value :  1.15114e-05
 Reference value :  1.15128e-05
 Reference value :  1.15149e-05
 Reference value :  1.15171e-05
 Reference value :  1.15211e-05
 Reference value :  1.15254e-05
 Reference value :  1.15301e-05
 Reference value :  1.15390e-05
 Reference value :  1.15483e-05
 Reference value :  1.15592e-05
 Reference value :  1.15961e-05
 Reference value :  1.17501e-05
 Reference value :  1.17502e-05
 Reference value :  1.17507e-05
 Reference value :  1.17518e-05
 Reference value :  1.17537e-05
 Reference value :  1.17567e-05
 Reference value :  1.17660e-05
 Reference value :  1.18385e-05
 Reference value :  1.20000e-05
 Reference value :  1.20001e-05
 Reference value :  1.20002e-05
 Reference value :  1.20008e-05
 Reference value :  1.20018e-05
 Reference value :  1.20026e-05
 Reference value :  1.20039e-05
 Reference value :  1.20055e-05
 Reference value :  1.20073e-05
 Reference value :  1.20090e-05
 Reference value :  1.20124e-05
 Reference value :  1.20196e-05
 Reference value :  1.20850e-05
 Reference value :  1.22501e-05
 Reference value :  1.22502e-05
 Reference value :  1.22503e-05
 Reference value :  1.22509e-05
 Reference value :  1.22518e-05
 Reference value :  1.22530e-05
 Reference value :  1.22544e-05
 Reference value :  1.22558e-05
 Reference value :  1.22576e-05
 Reference value :  1.22593e-05
 Reference value :  1.22621e-05
 Reference value :  1.22875e-05
 Reference value :  1.25000e-05
 Reference value :  1.25001e-05
 Reference value :  1.25001e-05
 Reference value :  1.25003e-05
 Reference value :  1.25013e-05
 Reference value :  1.25022e-05
 Reference value :  1.25033e-05
 Reference value :  1.25044e-05
 Reference value :  1.25056e-05
 Reference value :  1.25067e-05
 Reference value :  1.25107e-05
 Reference value :  1.25128e-05
 Reference value :  1.25155e-05
 Reference value :  1.25185e-05
 Reference value :  1.25231e-05
 Reference value :  1.25487e-05
 Reference value :  1.25699e-05
 Reference value :  1.25824e-05
 Reference value :  1.26032e-05
 Reference value :  1.26364e-05
 Reference value :  1.27501e-05
 Reference value :  1.27502e-05
 Reference value :  1.27503e-05
 Reference value :  1.27509e-05
 Reference value :  1.27514e-05
 Reference value :  1.27538e-05
 Reference value :  1.27557e-05
 Reference value :  1.27653e-05
 Reference value :  1.29044e-05
 Reference value :  1.30001e-05
 Reference value :  1.30002e-05
 Reference value :  1.30013e-05
 Reference value :  1.30022e-05
 Reference value :  1.30039e-05
 Reference value :  1.30066e-05
 Reference value :  1.30082e-05
 Reference value :  1.30112e-05
 Reference value :  1.30851e-05
 Reference value :  1.32502e-05
 Reference value :  1.32504e-05
 Reference value :  1.32518e-05
 Reference value :  1.32544e-05
 Reference value :  1.32567e-05
 Reference value :  1.32607e-05
 Reference value :  1.33075e-05
 Reference value :  1.35001e-05
 Reference value :  1.35002e-05
 Reference value :  1.35013e-05
 Reference value :  1.35033e-05
 Reference value :  1.35050e-05
 Reference value :  1.35061e-05
 Reference value :  1.35097e-05
 Reference value :  1.35117e-05
 Reference value :  1.35137e-05
 Reference value :  1.35176e-05
 Reference value :  1.35239e-05
 Reference value :  1.35357e-05
 Reference value :  1.35426e-05
 Reference value :  1.35511e-05
 Reference value :  1.35662e-05
 Reference value :  1.35847e-05
 Reference value :  1.36144e-05
 Reference value :  1.37125e-05
 Reference value :  1.37502e-05
 Reference value :  1.37504e-05
 Reference value :  1.37518e-05
 Reference value :  1.37544e-05
 Reference value :  1.37595e-05
 Reference value :  1.39030e-05
 Reference value :  1.40001e-05
 Reference value :  1.40005e-05
 Reference value :  1.40018e-05
 Reference value :  1.40039e-05
 Reference value :  1.40066e-05
 Reference value :  1.40082e-05
 Reference value :  1.40112e-05
 Reference value :  1.40851e-05
 Reference value :  1.42502e-05
 Reference value :  1.42504e-05
 Reference value :  1.42514e-05
 Reference value :  1.42538e-05
 Reference value :  1.42558e-05
 Reference value :  1.42584e-05
 Reference value :  1.42752e-05
 Reference value :  1.45000e-05
 Reference value :  1.45001e-05
 Reference value :  1.45003e-05
 Reference value :  1.45013e-05
 Reference value :  1.45027e-05
 Reference value :  1.45044e-05
 Reference value :  1.45056e-05
 Reference value :  1.45076e-05
 Reference value :  1.45107e-05
 Reference value :  1.45137e-05
 Reference value :  1.45165e-05
 Reference value :  1.45200e-05
 Reference value :  1.45323e-05
 Reference value :  1.45798e-05
 Reference value :  1.46640e-05
 Reference value :  1.47502e-05
 Reference value :  1.47504e-05
 Reference value :  1.47518e-05
 Reference value :  1.47544e-05
 Reference value :  1.47591e-05
 Reference value :  1.48390e-05
 Reference value :  1.50001e-05
 Reference value :  1.50003e-05
 Reference value :  1.50018e-05
 Reference value :  1.50033e-05
 Reference value :  1.50047e-05
 Reference value :  1.50073e-05
 Reference value :  1.50090e-05
 Reference value :  1.50124e-05
 Reference value :  1.50477e-05
 Reference value :  1.52501e-05
 Reference value :  1.52502e-05
 Reference value :  1.52502e-05
 Reference value :  1.52504e-05
 Reference value :  1.52514e-05
 Reference value :  1.52524e-05
 Reference value :  1.52538e-05
 Reference value :  1.52544e-05
 Reference value :  1.52558e-05
 Reference value :  1.52576e-05
 Reference value :  1.52593e-05
 Reference value :  1.52621e-05
 Reference value :  1.52872e-05
 Reference value :  1.55013e-05
 Reference value :  1.55051e-05
 Reference value :  1.55074e-05
 Reference value :  1.55096e-05
 Reference value :  1.55104e-05
 Reference value :  1.55123e-05
 Reference value :  1.55141e-05
 Reference value :  1.55167e-05
 Reference value :  1.55198e-05
 Reference value :  1.55302e-05
 Reference value :  1.55598e-05
 Reference value :  1.57464e-05
 Reference value :  1.57502e-05
 Reference value :  1.57504e-05
 Reference value :  1.57514e-05
 Reference value :  1.57524e-05
 Reference value :  1.57537e-05
 Reference value :  1.57550e-05
 Reference value :  1.57575e-05
 Reference value :  1.57720e-05
 Reference value :  1.60000e-05
 Reference value :  1.60001e-05
 Reference value :  1.60005e-05
 Reference value :  1.60018e-05
 Reference value :  1.60033e-05
 Reference value :  1.60047e-05
 Reference value :  1.60073e-05
 Reference value :  1.60090e-05
 Reference value :  1.60195e-05
 Reference value :  1.62501e-05
 Reference value :  1.62502e-05
 Reference value :  1.62509e-05
 Reference value :  1.62523e-05
 Reference value :  1.62544e-05
 Reference value :  1.62576e-05
 Reference value :  1.62607e-05
 Reference value :  1.62752e-05
 Reference value :  1.65000e-05
 Reference value :  1.65001e-05
 Reference value :  1.65002e-05
 Reference value :  1.65005e-05
 Reference value :  1.65013e-05
 Reference value :  1.65022e-05
 Reference value :  1.65039e-05
 Reference value :  1.65050e-05
 Reference value :  1.65061e-05
 Reference value :  1.65076e-05
 Reference value :  1.65100e-05
 Reference value :  1.65171e-05
 Reference value :  1.65284e-05
 Reference value :  1.65418e-05
 Reference value :  1.65684e-05
 Reference value :  1.66990e-05
 Reference value :  1.67501e-05
 Reference value :  1.67502e-05
 Reference value :  1.67503e-05
 Reference value :  1.67507e-05
 Reference value :  1.67514e-05
 Reference value :  1.67524e-05
 Reference value :  1.67539e-05
 Reference value :  1.67566e-05
 Reference value :  1.67649e-05
 Reference value :  1.67964e-05
 Reference value :  1.70000e-05
 Reference value :  1.70000e-05
 Reference value :  1.70000e-05
 Reference value :  1.70000e-05
 Reference value :  1.70001e-05
 Reference value :  1.70001e-05
 Reference value :  1.70004e-05
 Reference value :  1.70017e-05
 Reference value :  1.70033e-05
 Reference value :  1.70054e-05
 Reference value :  1.70068e-05
 Reference value :  1.70208e-05
 Reference value :  1.70275e-05
 Reference value :  1.70322e-05
 Reference value :  1.70443e-05
 Reference value :  1.70916e-05
 Reference value :  1.72501e-05
 Reference value :  1.72502e-05
 Reference value :  1.72507e-05
 Reference value :  1.72524e-05
 Reference value :  1.72544e-05
 Reference value :  1.72592e-05
 Reference value :  1.72840e-05
 Reference value :  1.75000e-05
 Reference value :  1.75001e-05
 Reference value :  1.75001e-05
 Reference value :  1.75003e-05
 Reference value :  1.75013e-05
 Reference value :  1.75027e-05
 Reference value :  1.75044e-05
 Reference value :  1.75089e-05
 Reference value :  1.75127e-05
 Reference value :  1.75156e-05
 Reference value :  1.75212e-05
 Reference value :  1.75558e-05
 Reference value :  1.77501e-05
 Reference value :  1.77502e-05
 Reference value :  1.77502e-05
 Reference value :  1.77504e-05
 Reference value :  1.77514e-05
 Reference value :  1.77524e-05
 Reference value :  1.77538e-05
 Reference value :  1.77551e-05
 Reference value :  1.77576e-05
 Reference value :  1.77655e-05
 Reference value :  1.80000e-05
 Reference value :  1.80018e-05
 Reference value :  1.80072e-05
 Reference value :  1.80127e-05
 Reference value :  1.80141e-05
 Reference value :  1.80177e-05
 Reference value :  1.80247e-05
 Reference value :  1.80609e-05
 Reference value :  1.80775e-05
 Reference value :  1.81039e-05
 Reference value :  1.81286e-05
 Reference value :  1.81787e-05
 Reference value :  1.82501e-05
 Reference value :  1.82502e-05
 Reference value :  1.82503e-05
 Reference value :  1.82507e-05
 Reference value :  1.82514e-05
 Reference value :  1.82524e-05
 Reference value :  1.82536e-05
 Reference value :  1.82549e-05
 Reference value :  1.82573e-05
 Reference value :  1.82642e-05
 Reference value :  1.83007e-05
 Reference value :  1.85000e-05
 Reference value :  1.85001e-05
 Reference value :  1.85001e-05
 Reference value :  1.85003e-05
 Reference value :  1.85008e-05
 Reference value :  1.85013e-05
 Reference value :  1.85022e-05
 Reference value :  1.85033e-05
 Reference value :  1.85047e-05
 Reference value :  1.85066e-05
 Reference value :  1.85082e-05
 Reference value :  1.85100e-05
 Reference value :  1.85196e-05
 Reference value :  1.86600e-05
 Reference value :  1.87501e-05
 Reference value :  1.87502e-05
 Reference value :  1.87503e-05
 Reference value :  1.87504e-05
 Reference value :  1.87509e-05
 Reference value :  1.87514e-05
 Reference value :  1.87524e-05
 Reference value :  1.87538e-05
 Reference value :  1.87544e-05
 Reference value :  1.87567e-05
 Reference value :  1.87584e-05
 Reference value :  1.87621e-05
 Reference value :  1.87752e-05
 Reference value :  1.88485e-05
 Reference value :  1.90000e-05
 Reference value :  1.90001e-05
 Reference value :  1.90002e-05
 Reference value :  1.90005e-05
 Reference value :  1.90013e-05
 Reference value :  1.90022e-05
 Reference value :  1.90033e-05
 Reference value :  1.90044e-05
 Reference value :  1.90056e-05
 Reference value :  1.90067e-05
 Reference value :  1.90084e-05
 Reference value :  1.90107e-05
 Reference value :  1.90137e-05
 Reference value :  1.90176e-05
 Reference value :  1.90232e-05
 Reference value :  1.90703e-05
 Reference value :  1.90988e-05
 Reference value :  1.91173e-05
 Reference value :  1.91330e-05
 Reference value :  1.91621e-05
 Reference value :  1.92080e-05
 Reference value :  1.92501e-05
 Reference value :  1.92502e-05
 Reference value :  1.92503e-05
 Reference value :  1.92509e-05
 Reference value :  1.92518e-05
 Reference value :  1.92538e-05
 Reference value :  1.92550e-05
 Reference value :  1.92592e-05
 Reference value :  1.93403e-05
 Reference value :  1.95018e-05
 Reference value :  1.95053e-05
 Reference value :  1.95071e-05
 Reference value :  1.95103e-05
 Reference value :  1.95133e-05
 Reference value :  1.95280e-05
 Reference value :  1.97088e-05
 Reference value :  1.97502e-05
 Reference value :  1.97502e-05
 Reference value :  1.97507e-05
 Reference value :  1.97519e-05
 Reference value :  1.97537e-05
 Reference value :  1.97555e-05
 Reference value :  1.97608e-05
 Reference value :  1.97969e-05
 Reference value :  2.00000e-05
 Reference value :  2.00001e-05
 Reference value :  2.00001e-05
 Reference value :  2.00003e-05
 Reference value :  2.00013e-05
 Reference value :  2.00027e-05
 Reference value :  2.00044e-05
 Reference value :  2.00056e-05
 Reference value :  2.00084e-05
 Reference value :  2.00128e-05
 Reference value :  2.00160e-05
 Reference value :  2.00194e-05
 Reference value :  2.00256e-05
 Reference value :  2.00311e-05
 Reference value :  2.00367e-05
 Reference value :  2.00393e-05
 Reference value :  2.00451e-05
 Reference value :  2.00544e-05
 Reference value :  2.01226e-05
 Reference value :  2.02502e-05
 Reference value :  2.02504e-05
 Reference value :  2.02514e-05
 Reference value :  2.02530e-05
 Reference value :  2.02558e-05
 Reference value :  2.02846e-05
 Reference value :  2.05018e-05
 Reference value :  2.05074e-05
 Reference value :  2.05124e-05
 Reference value :  2.05424e-05
 Reference value :  2.07501e-05
 Reference value :  2.07503e-05
 Reference value :  2.07514e-05
 Reference value :  2.07530e-05
 Reference value :  2.07548e-05
 Reference value :  2.07571e-05
 Reference value :  2.07602e-05
 Reference value :  2.07735e-05
 Reference value :  2.08746e-05
 Reference value :  2.10000e-05
 Reference value :  2.10001e-05
 Reference value :  2.10002e-05
 Reference value :  2.10008e-05
 Reference value :  2.10022e-05
 Reference value :  2.10039e-05
 Reference value :  2.10044e-05
 Reference value :  2.10056e-05
 Reference value :  2.10076e-05
 Reference value :  2.10107e-05
 Reference value :  2.10129e-05
 Reference value :  2.10145e-05
 Reference value :  2.10175e-05
 Reference value :  2.10213e-05
 Reference value :  2.10322e-05
 Reference value :  2.10485e-05
 Reference value :  2.10643e-05
 Reference value :  2.10698e-05
 Reference value :  2.10896e-05
 Reference value :  2.11042e-05
 Reference value :  2.11261e-05
 Reference value :  2.11648e-05
 Reference value :  2.12501e-05
 Reference value :  2.12502e-05
 Reference value :  2.12503e-05
 Reference value :  2.12514e-05
 Reference value :  2.12538e-05
 Reference value :  2.12557e-05
 Reference value :  2.12652e-05
 Reference value :  2.14034e-05
 Reference value :  2.15000e-05
 Reference value :  2.15001e-05
 Reference value :  2.15003e-05
 Reference value :  2.15013e-05
 Reference value :  2.15022e-05
 Reference value :  2.15039e-05
 Reference value :  2.15055e-05
 Reference value :  2.15073e-05
 Reference value :  2.15090e-05
 Reference value :  2.15112e-05
 Reference value :  2.15195e-05
 Reference value :  2.15851e-05
 Reference value :  2.17501e-05
 Reference value :  2.17502e-05
 Reference value :  2.17502e-05
 Reference value :  2.17503e-05
 Reference value :  2.17507e-05
 Reference value :  2.17514e-05
 Reference value :  2.17524e-05
 Reference value :  2.17544e-05
 Reference value :  2.17558e-05
 Reference value :  2.17576e-05
 Reference value :  2.17593e-05
 Reference value :  2.17648e-05
 Reference value :  2.19240e-05
 Reference value :  2.20013e-05
 Reference value :  2.20051e-05
 Reference value :  2.20073e-05
 Reference value :  2.20103e-05
 Reference value :  2.20122e-05
 Reference value :  2.20140e-05
 Reference value :  2.20166e-05
 Reference value :  2.20215e-05
 Reference value :  2.20297e-05
 Reference value :  2.20406e-05
 Reference value :  2.20462e-05
 Reference value :  2.20635e-05
 Reference value :  2.20773e-05
 Reference value :  2.20930e-05
 Reference value :  2.21088e-05
 Reference value :  2.21546e-05
 Reference value :  2.22501e-05
 Reference value :  2.22502e-05
 Reference value :  2.22503e-05
 Reference value :  2.22504e-05
 Reference value :  2.22509e-05
 Reference value :  2.22519e-05
 Reference value :  2.22530e-05
 Reference value :  2.22544e-05
 Reference value :  2.22568e-05
 Reference value :  2.22660e-05
 Reference value :  2.23366e-05
 Reference value :  2.25000e-05
 Reference value :  2.25001e-05
 Reference value :  2.25002e-05
 Reference value :  2.25005e-05
 Reference value :  2.25018e-05
 Reference value :  2.25033e-05
 Reference value :  2.25055e-05
 Reference value :  2.25082e-05
 Reference value :  2.25124e-05
 Reference value :  2.25850e-05
 Reference value :  2.27501e-05
 Reference value :  2.27502e-05
 Reference value :  2.27507e-05
 Reference value :  2.27514e-05
 Reference value :  2.27530e-05
 Reference value :  2.27544e-05
 Reference value :  2.27567e-05
 Reference value :  2.27593e-05
 Reference value :  2.27683e-05
 Reference value :  2.29246e-05
 Reference value :  2.30013e-05
 Reference value :  2.30051e-05
 Reference value :  2.30072e-05
 Reference value :  2.30103e-05
 Reference value :  2.30122e-05
 Reference value :  2.30140e-05
 Reference value :  2.30178e-05
 Reference value :  2.30215e-05
 Reference value :  2.30301e-05
 Reference value :  2.30795e-05
 Reference value :  2.31141e-05
 Reference value :  2.32501e-05
 Reference value :  2.32502e-05
 Reference value :  2.32504e-05
 Reference value :  2.32514e-05
 Reference value :  2.32530e-05
 Reference value :  2.32550e-05
 Reference value :  2.32590e-05
 Reference value :  2.33034e-05
 Reference value :  2.35000e-05
 Reference value :  2.35002e-05
 Reference value :  2.35008e-05
 Reference value :  2.35022e-05
 Reference value :  2.35047e-05
 Reference value :  2.35073e-05
 Reference value :  2.35100e-05
 Reference value :  2.35289e-05
 Reference value :  2.37501e-05
 Reference value :  2.37503e-05
 Reference value :  2.37509e-05
 Reference value :  2.37524e-05
 Reference value :  2.37544e-05
 Reference value :  2.37576e-05
 Reference value :  2.37621e-05
 Reference value :  2.38075e-05
 Reference value :  2.40000e-05
 Reference value :  2.40001e-05
 Reference value :  2.40005e-05
 Reference value :  2.40018e-05
 Reference value :  2.40033e-05
 Reference value :  2.40044e-05
 Reference value :  2.40056e-05
 Reference value :  2.40067e-05
 Reference value :  2.40097e-05
 Reference value :  2.40118e-05
 Reference value :  2.40137e-05
 Reference value :  2.40155e-05
 Reference value :  2.40188e-05
 Reference value :  2.40276e-05
 Reference value :  2.40630e-05
 Reference value :  2.41647e-05
 Reference value :  2.42501e-05
 Reference value :  2.42502e-05
 Reference value :  2.42502e-05
 Reference value :  2.42504e-05
 Reference value :  2.42509e-05
 Reference value :  2.42514e-05
 Reference value :  2.42530e-05
 Reference value :  2.42550e-05
 Reference value :  2.42614e-05
 Reference value :  2.44017e-05
 Reference value :  2.45001e-05
 Reference value :  2.45003e-05
 Reference value :  2.45013e-05
 Reference value :  2.45026e-05
 Reference value :  2.45047e-05
 Reference value :  2.45073e-05
 Reference value :  2.45090e-05
 Reference value :  2.45149e-05
 Reference value :  2.47501e-05
 Reference value :  2.47502e-05
 Reference value :  2.47503e-05
 Reference value :  2.47509e-05
 Reference value :  2.47518e-05
 Reference value :  2.47530e-05
 Reference value :  2.47544e-05
 Reference value :  2.47558e-05
 Reference value :  2.47576e-05
 Reference value :  2.47593e-05
 Reference value :  2.47648e-05
 Reference value :  2.48070e-05
 Reference value :  2.50000e-05
 Reference value :  2.50001e-05
 Reference value :  2.50002e-05
 Reference value :  2.50013e-05
 Reference value :  2.50033e-05
 Reference value :  2.50039e-05
 Reference value :  2.50044e-05
 Reference value :  2.50056e-05
 Reference value :  2.50067e-05
 Reference value :  2.50084e-05
 Reference value :  2.50100e-05
 Reference value :  2.50129e-05
 Reference value :  2.50160e-05
 Reference value :  2.50210e-05
 Reference value :  2.50266e-05
 Reference value :  2.50323e-05
 Reference value :  2.50445e-05
 Reference value :  2.50879e-05
 Reference value :  2.52501e-05
 Reference value :  2.52501e-05
 Reference value :  2.52502e-05
 Reference value :  2.52502e-05
 Reference value :  2.52503e-05
 Reference value :  2.52507e-05
 Reference value :  2.52514e-05
 Reference value :  2.52530e-05
 Reference value :  2.52539e-05
 Reference value :  2.52566e-05
 Reference value :  2.52618e-05
 Reference value :  2.52964e-05
 Reference value :  2.55000e-05
 Reference value :  2.55000e-05
 Reference value :  2.55000e-05
 Reference value :  2.55001e-05
 Reference value :  2.55001e-05
 Reference value :  2.55004e-05
 Reference value :  2.55017e-05
 Reference value :  2.55033e-05
 Reference value :  2.55054e-05
 Reference value :  2.55076e-05
 Reference value :  2.55208e-05
 Reference value :  2.55275e-05
 Reference value :  2.55322e-05
 Reference value :  2.55488e-05
 Reference value :  2.55916e-05
 Reference value :  2.57501e-05
 Reference value :  2.57502e-05
 Reference value :  2.57503e-05
 Reference value :  2.57514e-05
 Reference value :  2.57538e-05
 Reference value :  2.57557e-05
 Reference value :  2.57614e-05
 Reference value :  2.59058e-05
 Reference value :  2.60001e-05
 Reference value :  2.60002e-05
 Reference value :  2.60013e-05
 Reference value :  2.60027e-05
 Reference value :  2.60044e-05
 Reference value :  2.60089e-05
 Reference value :  2.60127e-05
 Reference value :  2.60156e-05
 Reference value :  2.60249e-05
 Reference value :  2.62501e-05
 Reference value :  2.62502e-05
 Reference value :  2.62504e-05
 Reference value :  2.62514e-05
 Reference value :  2.62530e-05
 Reference value :  2.62551e-05
 Reference value :  2.62593e-05
 Reference value :  2.63048e-05
 Reference value :  2.65018e-05
 Reference value :  2.65072e-05
 Reference value :  2.65112e-05
 Reference value :  2.65127e-05
 Reference value :  2.65141e-05
 Reference value :  2.65165e-05
 Reference value :  2.65189e-05
 Reference value :  2.65247e-05
 Reference value :  2.65469e-05
 Reference value :  2.65605e-05
 Reference value :  2.65768e-05
 Reference value :  2.66026e-05
 Reference value :  2.66265e-05
 Reference value :  2.66782e-05
 Reference value :  2.67502e-05
 Reference value :  2.67503e-05
 Reference value :  2.67509e-05
 Reference value :  2.67519e-05
 Reference value :  2.67536e-05
 Reference value :  2.67549e-05
 Reference value :  2.67573e-05
 Reference value :  2.68006e-05
 Reference value :  2.70001e-05
 Reference value :  2.70003e-05
 Reference value :  2.70018e-05
 Reference value :  2.70033e-05
 Reference value :  2.70047e-05
 Reference value :  2.70073e-05
 Reference value :  2.70090e-05
 Reference value :  2.70149e-05
 Reference value :  2.71600e-05
 Reference value :  2.72502e-05
 Reference value :  2.72503e-05
 Reference value :  2.72514e-05
 Reference value :  2.72530e-05
 Reference value :  2.72550e-05
 Reference value :  2.72576e-05
 Reference value :  2.72607e-05
 Reference value :  2.72752e-05
 Reference value :  2.73485e-05
 Reference value :  2.75000e-05
 Reference value :  2.75001e-05
 Reference value :  2.75001e-05
 Reference value :  2.75002e-05
 Reference value :  2.75005e-05
 Reference value :  2.75013e-05
 Reference value :  2.75022e-05
 Reference value :  2.75033e-05
 Reference value :  2.75044e-05
 Reference value :  2.75056e-05
 Reference value :  2.75061e-05
 Reference value :  2.75076e-05
 Reference value :  2.75107e-05
 Reference value :  2.75137e-05
 Reference value :  2.75155e-05
 Reference value :  2.75187e-05
 Reference value :  2.75215e-05
 Reference value :  2.75542e-05
 Reference value :  2.75703e-05
 Reference value :  2.75987e-05
 Reference value :  2.76171e-05
 Reference value :  2.76329e-05
 Reference value :  2.76908e-05
 Reference value :  2.77501e-05
 Reference value :  2.77502e-05
 Reference value :  2.77502e-05
 Reference value :  2.77504e-05
 Reference value :  2.77514e-05
 Reference value :  2.77530e-05
 Reference value :  2.77544e-05
 Reference value :  2.77567e-05
 Reference value :  2.77654e-05
 Reference value :  2.78403e-05
 Reference value :  2.80018e-05
 Reference value :  2.80071e-05
 Reference value :  2.80103e-05
 Reference value :  2.80150e-05
 Reference value :  2.80381e-05
 Reference value :  2.82087e-05
 Reference value :  2.82501e-05
 Reference value :  2.82502e-05
 Reference value :  2.82503e-05
 Reference value :  2.82509e-05
 Reference value :  2.82519e-05
 Reference value :  2.82530e-05
 Reference value :  2.82542e-05
 Reference value :  2.82555e-05
 Reference value :  2.82585e-05
 Reference value :  2.82797e-05
 Reference value :  2.83866e-05
 Reference value :  2.85000e-05
 Reference value :  2.85001e-05
 Reference value :  2.85002e-05
 Reference value :  2.85005e-05
 Reference value :  2.85013e-05
 Reference value :  2.85022e-05
 Reference value :  2.85039e-05
 Reference value :  2.85050e-05
 Reference value :  2.85056e-05
 Reference value :  2.85067e-05
 Reference value :  2.85100e-05
 Reference value :  2.85128e-05
 Reference value :  2.85139e-05
 Reference value :  2.85160e-05
 Reference value :  2.85171e-05
 Reference value :  2.85194e-05
 Reference value :  2.85257e-05
 Reference value :  2.85316e-05
 Reference value :  2.85368e-05
 Reference value :  2.85397e-05
 Reference value :  2.85423e-05
 Reference value :  2.85484e-05
 Reference value :  2.85591e-05
 Reference value :  2.85781e-05
 Reference value :  2.86153e-05
 Reference value :  2.87058e-05
 Reference value :  2.87501e-05
 Reference value :  2.87502e-05
 Reference value :  2.87502e-05
 Reference value :  2.87503e-05
 Reference value :  2.87507e-05
 Reference value :  2.87514e-05
 Reference value :  2.87524e-05
 Reference value :  2.87537e-05
 Reference value :  2.87551e-05
 Reference value :  2.87567e-05
 Reference value :  2.87594e-05
 Reference value :  2.87660e-05
 Reference value :  2.88046e-05
 Reference value :  2.90000e-05
 Reference value :  2.90018e-05
 Reference value :  2.90055e-05
 Reference value :  2.90074e-05
 Reference value :  2.90108e-05
 Reference value :  2.90144e-05
 Reference value :  2.90312e-05
 Reference value :  2.90921e-05
 Reference value :  2.92501e-05
 Reference value :  2.92502e-05
 Reference value :  2.92503e-05
 Reference value :  2.92507e-05
 Reference value :  2.92514e-05
 Reference value :  2.92524e-05
 Reference value :  2.92542e-05
 Reference value :  2.92562e-05
 Reference value :  2.92580e-05
 Reference value :  2.92621e-05
 Reference value :  2.92824e-05
 Reference value :  2.94560e-05
 Reference value :  2.95000e-05
 Reference value :  2.95001e-05
 Reference value :  2.95003e-05
 Reference value :  2.95013e-05
 Reference value :  2.95022e-05
 Reference value :  2.95033e-05
 Reference value :  2.95044e-05
 Reference value :  2.95056e-05
 Reference value :  2.95067e-05
 Reference value :  2.95097e-05
 Reference value :  2.95107e-05
 Reference value :  2.95118e-05
 Reference value :  2.95129e-05
 Reference value :  2.95137e-05
 Reference value :  2.95155e-05
 Reference value :  2.95174e-05
 Reference value :  2.95196e-05
 Reference value :  2.95230e-05
 Reference value :  2.95319e-05
 Reference value :  2.95477e-05
 Reference value :  2.95626e-05
 Reference value :  2.95668e-05
 Reference value :  2.95761e-05
 Reference value :  2.95864e-05
 Reference value :  2.95905e-05
 Reference value :  2.96006e-05
 Reference value :  2.96129e-05
 Reference value :  2.96278e-05
 Reference value :  2.96447e-05
 Reference value :  2.96922e-05
 Reference value :  2.97501e-05
 Reference value :  2.97502e-05
 Reference value :  2.97502e-05
 Reference value :  2.97507e-05
 Reference value :  2.97514e-05
 Reference value :  2.97530e-05
 Reference value :  2.97544e-05
 Reference value :  2.97558e-05
 Reference value :  2.97595e-05
 Reference value :  2.97730e-05
 Reference value :  2.98386e-05
 Reference value :  3.00000e-05
 Reference value :  3.00001e-05
 Reference value :  3.00002e-05
 Reference value :  3.00003e-05
 Reference value :  3.00013e-05
 Reference value :  3.00022e-05
 Reference value :  3.00033e-05
 Reference value :  3.00039e-05
 Reference value :  3.00047e-05
 Reference value :  3.00066e-05
 Reference value :  3.00073e-05
 Reference value :  3.00090e-05
 Reference value :  3.00112e-05
 Reference value :  3.00195e-05
 Reference value :  3.00851e-05
 Reference value :  3.02501e-05
 Reference value :  3.02502e-05
 Reference value :  3.02502e-05
 Reference value :  3.02504e-05
 Reference value :  3.02509e-05
 Reference value :  3.02514e-05
 Reference value :  3.02524e-05
 Reference value :  3.02538e-05
 Reference value :  3.02550e-05
 Reference value :  3.02567e-05
 Reference value :  3.02584e-05
 Reference value :  3.02621e-05
 Reference value :  3.02752e-05
 Reference value :  3.03479e-05
 Reference value :  3.05013e-05
 Reference value :  3.05051e-05
 Reference value :  3.05073e-05
 Reference value :  3.05103e-05
 Reference value :  3.05122e-05
 Reference value :  3.05140e-05
 Reference value :  3.05157e-05
 Reference value :  3.05176e-05
 Reference value :  3.05197e-05
 Reference value :  3.05231e-05
 Reference value :  3.05296e-05
 Reference value :  3.05366e-05
 Reference value :  3.05427e-05
 Reference value :  3.05484e-05
 Reference value :  3.05628e-05
 Reference value :  3.05983e-05
 Reference value :  3.06194e-05
 Reference value :  3.06595e-05
 Reference value :  3.07501e-05
 Reference value :  3.07502e-05
 Reference value :  3.07503e-05
 Reference value :  3.07514e-05
 Reference value :  3.07524e-05
 Reference value :  3.07537e-05
 Reference value :  3.07551e-05
 Reference value :  3.07579e-05
 Reference value :  3.07728e-05
 Reference value :  3.08964e-05
 Reference value :  3.10001e-05
 Reference value :  3.10002e-05
 Reference value :  3.10005e-05
 Reference value :  3.10013e-05
 Reference value :  3.10022e-05
 Reference value :  3.10033e-05
 Reference value :  3.10039e-05
 Reference value :  3.10047e-05
 Reference value :  3.10066e-05
 Reference value :  3.10073e-05
 Reference value :  3.10090e-05
 Reference value :  3.10112e-05
 Reference value :  3.10289e-05
 Reference value :  3.11597e-05
 Reference value :  3.12502e-05
 Reference value :  3.12503e-05
 Reference value :  3.12507e-05
 Reference value :  3.12514e-05
 Reference value :  3.12524e-05
 Reference value :  3.12538e-05
 Reference value :  3.12550e-05
 Reference value :  3.12576e-05
 Reference value :  3.12593e-05
 Reference value :  3.12683e-05
 Reference value :  3.15000e-05
 Reference value :  3.15001e-05
 Reference value :  3.15005e-05
 Reference value :  3.15018e-05
 Reference value :  3.15033e-05
 Reference value :  3.15044e-05
 Reference value :  3.15056e-05
 Reference value :  3.15076e-05
 Reference value :  3.15107e-05
 Reference value :  3.15137e-05
 Reference value :  3.15165e-05
 Reference value :  3.15200e-05
 Reference value :  3.15359e-05
 Reference value :  3.15793e-05
 Reference value :  3.16544e-05
 Reference value :  3.17234e-05
 Reference value :  3.17502e-05
 Reference value :  3.17503e-05
 Reference value :  3.17514e-05
 Reference value :  3.17530e-05
 Reference value :  3.17544e-05
 Reference value :  3.17576e-05
 Reference value :  3.17835e-05
 Reference value :  3.20000e-05
 Reference value :  3.20001e-05
 Reference value :  3.20005e-05
 Reference value :  3.20018e-05
 Reference value :  3.20026e-05
 Reference value :  3.20039e-05
 Reference value :  3.20055e-05
 Reference value :  3.20073e-05
 Reference value :  3.20090e-05
 Reference value :  3.20124e-05
 Reference value :  3.20477e-05
 Reference value :  3.22501e-05
 Reference value :  3.22502e-05
 Reference value :  3.22504e-05
 Reference value :  3.22514e-05
 Reference value :  3.22530e-05
 Reference value :  3.22550e-05
 Reference value :  3.22576e-05
 Reference value :  3.22621e-05
 Reference value :  3.23473e-05
 Reference value :  3.25000e-05
 Reference value :  3.25002e-05
 Reference value :  3.25008e-05
 Reference value :  3.25018e-05
 Reference value :  3.25027e-05
 Reference value :  3.25039e-05
 Reference value :  3.25050e-05
 Reference value :  3.25061e-05
 Reference value :  3.25097e-05
 Reference value :  3.25118e-05
 Reference value :  3.25145e-05
 Reference value :  3.25176e-05
 Reference value :  3.25220e-05
 Reference value :  3.25391e-05
 Reference value :  3.25703e-05
 Reference value :  3.25883e-05
 Reference value :  3.26009e-05
 Reference value :  3.26511e-05
 Reference value :  3.27501e-05
 Reference value :  3.27501e-05
 Reference value :  3.27502e-05
 Reference value :  3.27503e-05
 Reference value :  3.27507e-05
 Reference value :  3.27514e-05
 Reference value :  3.27530e-05
 Reference value :  3.27544e-05
 Reference value :  3.27557e-05
 Reference value :  3.27591e-05
 Reference value :  3.27724e-05
 Reference value :  3.28402e-05
 Reference value :  3.30000e-05
 Reference value :  3.30001e-05
 Reference value :  3.30002e-05
 Reference value :  3.30003e-05
 Reference value :  3.30008e-05
 Reference value :  3.30013e-05
 Reference value :  3.30022e-05
 Reference value :  3.30032e-05
 Reference value :  3.30044e-05
 Reference value :  3.30062e-05
 Reference value :  3.30082e-05
 Reference value :  3.30116e-05
 Reference value :  3.30285e-05
 Reference value :  3.32501e-05
 Reference value :  3.32502e-05
 Reference value :  3.32502e-05
 Reference value :  3.32504e-05
 Reference value :  3.32514e-05
 Reference value :  3.32530e-05
 Reference value :  3.32544e-05
 Reference value :  3.32567e-05
 Reference value :  3.32654e-05
 Reference value :  3.33394e-05
 Reference value :  3.35018e-05
 Reference value :  3.35072e-05
 Reference value :  3.35126e-05
 Reference value :  3.35279e-05
 Reference value :  3.36319e-05
 Reference value :  3.37501e-05
 Reference value :  3.37502e-05
 Reference value :  3.37504e-05
 Reference value :  3.37514e-05
 Reference value :  3.37524e-05
 Reference value :  3.37544e-05
 Reference value :  3.37562e-05
 Reference value :  3.37604e-05
 Reference value :  3.38094e-05
 Reference value :  3.40000e-05
 Reference value :  3.40000e-05
 Reference value :  3.40000e-05
 Reference value :  3.40000e-05
 Reference value :  3.40001e-05
 Reference value :  3.40003e-05
 Reference value :  3.40012e-05
 Reference value :  3.40022e-05
 Reference value :  3.40040e-05
 Reference value :  3.40054e-05
 Reference value :  3.40068e-05
 Reference value :  3.40142e-05
 Reference value :  3.40269e-05
 Reference value :  3.40314e-05
 Reference value :  3.40388e-05
 Reference value :  3.40477e-05
 Reference value :  3.40716e-05
 Reference value :  3.41289e-05
 Reference value :  3.42501e-05
 Reference value :  3.42502e-05
 Reference value :  3.42502e-05
 Reference value :  3.42504e-05
 Reference value :  3.42514e-05
 Reference value :  3.42530e-05
 Reference value :  3.42544e-05
 Reference value :  3.42567e-05
 Reference value :  3.42654e-05
 Reference value :  3.43395e-05
 Reference value :  3.45000e-05
 Reference value :  3.45001e-05
 Reference value :  3.45003e-05
 Reference value :  3.45013e-05
 Reference value :  3.45027e-05
 Reference value :  3.45038e-05
 Reference value :  3.45062e-05
 Reference value :  3.45089e-05
 Reference value :  3.45127e-05
 Reference value :  3.45156e-05
 Reference value :  3.45213e-05
 Reference value :  3.45565e-05
 Reference value :  3.47501e-05
 Reference value :  3.47502e-05
 Reference value :  3.47504e-05
 Reference value :  3.47514e-05
 Reference value :  3.47530e-05
 Reference value :  3.47544e-05
 Reference value :  3.47567e-05
 Reference value :  3.47614e-05
 Reference value :  3.48048e-05
 Reference value :  3.50000e-05
 Reference value :  3.50001e-05
 Reference value :  3.50001e-05
 Reference value :  3.50003e-05
 Reference value :  3.50013e-05
 Reference value :  3.50022e-05
 Reference value :  3.50033e-05
 Reference value :  3.50044e-05
 Reference value :  3.50056e-05
 Reference value :  3.50067e-05
 Reference value :  3.50100e-05
 Reference value :  3.50128e-05
 Reference value :  3.50139e-05
 Reference value :  3.50160e-05
 Reference value :  3.50171e-05
 Reference value :  3.50194e-05
 Reference value :  3.50228e-05
 Reference value :  3.50316e-05
 Reference value :  3.50592e-05
 Reference value :  3.50941e-05
 Reference value :  3.51065e-05
 Reference value :  3.51220e-05
 Reference value :  3.51649e-05
 Reference value :  3.52501e-05
 Reference value :  3.52502e-05
 Reference value :  3.52503e-05
 Reference value :  3.52509e-05
 Reference value :  3.52518e-05
 Reference value :  3.52530e-05
 Reference value :  3.52544e-05
 Reference value :  3.52567e-05
 Reference value :  3.52618e-05
 Reference value :  3.53045e-05
 Reference value :  3.55000e-05
 Reference value :  3.55001e-05
 Reference value :  3.55001e-05
 Reference value :  3.55003e-05
 Reference value :  3.55013e-05
 Reference value :  3.55022e-05
 Reference value :  3.55039e-05
 Reference value :  3.55055e-05
 Reference value :  3.55073e-05
 Reference value :  3.55090e-05
 Reference value :  3.55112e-05
 Reference value :  3.55196e-05
 Reference value :  3.55848e-05
 Reference value :  3.57501e-05
 Reference value :  3.57502e-05
 Reference value :  3.57503e-05
 Reference value :  3.57507e-05
 Reference value :  3.57514e-05
 Reference value :  3.57524e-05
 Reference value :  3.57530e-05
 Reference value :  3.57544e-05
 Reference value :  3.57558e-05
 Reference value :  3.57567e-05
 Reference value :  3.57584e-05
 Reference value :  3.57649e-05
 Reference value :  3.58486e-05
 Reference value :  3.60014e-05
 Reference value :  3.60056e-05
 Reference value :  3.60081e-05
 Reference value :  3.60116e-05
 Reference value :  3.60140e-05
 Reference value :  3.60163e-05
 Reference value :  3.60174e-05
 Reference value :  3.60196e-05
 Reference value :  3.60306e-05
 Reference value :  3.60665e-05
 Reference value :  3.60955e-05
 Reference value :  3.61139e-05
 Reference value :  3.61675e-05
 Reference value :  3.62501e-05
 Reference value :  3.62502e-05
 Reference value :  3.62504e-05
 Reference value :  3.62514e-05
 Reference value :  3.62530e-05
 Reference value :  3.62544e-05
 Reference value :  3.62557e-05
 Reference value :  3.62592e-05
 Reference value :  3.62838e-05
 Reference value :  3.64046e-05
 Reference value :  3.65000e-05
 Reference value :  3.65001e-05
 Reference value :  3.65002e-05
 Reference value :  3.65008e-05
 Reference value :  3.65018e-05
 Reference value :  3.65027e-05
 Reference value :  3.65038e-05
 Reference value :  3.65051e-05
 Reference value :  3.65072e-05
 Reference value :  3.65082e-05
 Reference value :  3.65092e-05
 Reference value :  3.65115e-05
 Reference value :  3.65205e-05
 Reference value :  3.65799e-05
 Reference value :  3.67501e-05
 Reference value :  3.67502e-05
 Reference value :  3.67502e-05
 Reference value :  3.67503e-05
 Reference value :  3.67507e-05
 Reference value :  3.67514e-05
 Reference value :  3.67524e-05
 Reference value :  3.67538e-05
 Reference value :  3.67551e-05
 Reference value :  3.67576e-05
 Reference value :  3.67725e-05
 Reference value :  3.69054e-05
 Reference value :  3.70000e-05
 Reference value :  3.70001e-05
 Reference value :  3.70002e-05
 Reference value :  3.70008e-05
 Reference value :  3.70018e-05
 Reference value :  3.70027e-05
 Reference value :  3.70039e-05
 Reference value :  3.70050e-05
 Reference value :  3.70061e-05
 Reference value :  3.70100e-05
 Reference value :  3.70128e-05
 Reference value :  3.70160e-05
 Reference value :  3.70194e-05
 Reference value :  3.70283e-05
 Reference value :  3.70402e-05
 Reference value :  3.70498e-05
 Reference value :  3.70695e-05
 Reference value :  3.71937e-05
 Reference value :  3.72502e-05
 Reference value :  3.72503e-05
 Reference value :  3.72509e-05
 Reference value :  3.72518e-05
 Reference value :  3.72537e-05
 Reference value :  3.72567e-05
 Reference value :  3.72660e-05
 Reference value :  3.73385e-05
 Reference value :  3.75001e-05
 Reference value :  3.75002e-05
 Reference value :  3.75008e-05
 Reference value :  3.75018e-05
 Reference value :  3.75033e-05
 Reference value :  3.75047e-05
 Reference value :  3.75073e-05
 Reference value :  3.75090e-05
 Reference value :  3.75148e-05
 Reference value :  3.76599e-05
 Reference value :  3.77502e-05
 Reference value :  3.77503e-05
 Reference value :  3.77509e-05
 Reference value :  3.77524e-05
 Reference value :  3.77538e-05
 Reference value :  3.77550e-05
 Reference value :  3.77567e-05
 Reference value :  3.77584e-05
 Reference value :  3.77621e-05
 Reference value :  3.77875e-05
 Reference value :  3.80000e-05
 Reference value :  3.80001e-05
 Reference value :  3.80001e-05
 Reference value :  3.80003e-05
 Reference value :  3.80013e-05
 Reference value :  3.80022e-05
 Reference value :  3.80033e-05
 Reference value :  3.80044e-05
 Reference value :  3.80056e-05
 Reference value :  3.80067e-05
 Reference value :  3.80097e-05
 Reference value :  3.80117e-05
 Reference value :  3.80137e-05
 Reference value :  3.80155e-05
 Reference value :  3.80185e-05
 Reference value :  3.80213e-05
 Reference value :  3.80319e-05
 Reference value :  3.80476e-05
 Reference value :  3.80618e-05
 Reference value :  3.80666e-05
 Reference value :  3.80781e-05
 Reference value :  3.80915e-05
 Reference value :  3.81059e-05
 Reference value :  3.81125e-05
 Reference value :  3.81343e-05
 Reference value :  3.81485e-05
 Reference value :  3.81937e-05
 Reference value :  3.82501e-05
 Reference value :  3.82502e-05
 Reference value :  3.82503e-05
 Reference value :  3.82509e-05
 Reference value :  3.82518e-05
 Reference value :  3.82530e-05
 Reference value :  3.82544e-05
 Reference value :  3.82558e-05
 Reference value :  3.82595e-05
 Reference value :  3.82730e-05
 Reference value :  3.83048e-05
 Reference value :  3.84029e-05
 Reference value :  3.85018e-05
 Reference value :  3.85073e-05
 Reference value :  3.85122e-05
 Reference value :  3.85232e-05
 Reference value :  3.85928e-05
 Reference value :  3.87501e-05
 Reference value :  3.87502e-05
 Reference value :  3.87503e-05
 Reference value :  3.87507e-05
 Reference value :  3.87514e-05
 Reference value :  3.87524e-05
 Reference value :  3.87542e-05
 Reference value :  3.87562e-05
 Reference value :  3.87592e-05
 Reference value :  3.87671e-05
 Reference value :  3.88754e-05
 Reference value :  3.90001e-05
 Reference value :  3.90002e-05
 Reference value :  3.90013e-05
 Reference value :  3.90022e-05
 Reference value :  3.90039e-05
 Reference value :  3.90044e-05
 Reference value :  3.90056e-05
 Reference value :  3.90067e-05
 Reference value :  3.90097e-05
 Reference value :  3.90107e-05
 Reference value :  3.90129e-05
 Reference value :  3.90145e-05
 Reference value :  3.90176e-05
 Reference value :  3.90220e-05
 Reference value :  3.90274e-05
 Reference value :  3.90390e-05
 Reference value :  3.90444e-05
 Reference value :  3.90546e-05
 Reference value :  3.90773e-05
 Reference value :  3.91058e-05
 Reference value :  3.91230e-05
 Reference value :  3.91419e-05
 Reference value :  3.91756e-05
 Reference value :  3.92501e-05
 Reference value :  3.92502e-05
 Reference value :  3.92503e-05
 Reference value :  3.92509e-05
 Reference value :  3.92518e-05
 Reference value :  3.92537e-05
 Reference value :  3.92558e-05
 Reference value :  3.92594e-05
 Reference value :  3.92847e-05
 Reference value :  3.95000e-05
 Reference value :  3.95001e-05
 Reference value :  3.95002e-05
 Reference value :  3.95008e-05
 Reference value :  3.95018e-05
 Reference value :  3.95026e-05
 Reference value :  3.95039e-05
 Reference value :  3.95055e-05
 Reference value :  3.95073e-05
 Reference value :  3.95090e-05
 Reference value :  3.95124e-05
 Reference value :  3.95477e-05
 Reference value :  3.97501e-05
 Reference value :  3.97502e-05
 Reference value :  3.97504e-05
 Reference value :  3.97514e-05
 Reference value :  3.97530e-05
 Reference value :  3.97544e-05
 Reference value :  3.97567e-05
 Reference value :  3.97584e-05
 Reference value :  3.97621e-05
 Reference value :  3.97873e-05
 Reference value :  4.00000e-05
 Reference value :  4.00001e-05
 Reference value :  4.00001e-05
 Reference value :  4.00003e-05
 Reference value :  4.00013e-05
 Reference value :  4.00022e-05
 Reference value :  4.00033e-05
 Reference value :  4.00044e-05
 Reference value :  4.00056e-05
 Reference value :  4.00067e-05
 Reference value :  4.00084e-05
 Reference value :  4.00107e-05
 Reference value :  4.00129e-05
 Reference value :  4.00145e-05
 Reference value :  4.00165e-05
 Reference value :  4.00188e-05
 Reference value :  4.00239e-05
 Reference value :  4.00335e-05
 Reference value :  4.00524e-05
 Reference value :  4.00812e-05
 Reference value :  4.01066e-05
 Reference value :  4.01277e-05
 Reference value :  4.01693e-05
 Reference value :  4.02194e-05
 Reference value :  4.02501e-05
 Reference value :  4.02502e-05
 Reference value :  4.02504e-05
 Reference value :  4.02514e-05
 Reference value :  4.02530e-05
 Reference value :  4.02544e-05
 Reference value :  4.02568e-05
 Reference value :  4.02660e-05
 Reference value :  4.03046e-05
 Reference value :  4.05000e-05
 Reference value :  4.05001e-05
 Reference value :  4.05002e-05
 Reference value :  4.05008e-05
 Reference value :  4.05018e-05
 Reference value :  4.05026e-05
 Reference value :  4.05039e-05
 Reference value :  4.05055e-05
 Reference value :  4.05073e-05
 Reference value :  4.05090e-05
 Reference value :  4.05124e-05
 Reference value :  4.05289e-05
 Reference value :  4.07501e-05
 Reference value :  4.07502e-05
 Reference value :  4.07503e-05
 Reference value :  4.07507e-05
 Reference value :  4.07514e-05
 Reference value :  4.07530e-05
 Reference value :  4.07544e-05
 Reference value :  4.07567e-05
 Reference value :  4.07593e-05
 Reference value :  4.07752e-05
 Reference value :  4.09228e-05
 Reference value :  4.10013e-05
 Reference value :  4.10051e-05
 Reference value :  4.10074e-05
 Reference value :  4.10104e-05
 Reference value :  4.10124e-05
 Reference value :  4.10141e-05
 Reference value :  4.10158e-05
 Reference value :  4.10177e-05
 Reference value :  4.10212e-05
 Reference value :  4.10293e-05
 Reference value :  4.10419e-05
 Reference value :  4.10552e-05
 Reference value :  4.10686e-05
 Reference value :  4.11065e-05
 Reference value :  4.12501e-05
 Reference value :  4.12502e-05
 Reference value :  4.12502e-05
 Reference value :  4.12504e-05
 Reference value :  4.12514e-05
 Reference value :  4.12524e-05
 Reference value :  4.12538e-05
 Reference value :  4.12544e-05
 Reference value :  4.12557e-05
 Reference value :  4.12591e-05
 Reference value :  4.12723e-05
 Reference value :  4.13387e-05
 Reference value :  4.15000e-05
 Reference value :  4.15001e-05
 Reference value :  4.15002e-05
 Reference value :  4.15003e-05
 Reference value :  4.15013e-05
 Reference value :  4.15022e-05
 Reference value :  4.15032e-05
 Reference value :  4.15044e-05
 Reference value :  4.15062e-05
 Reference value :  4.15082e-05
 Reference value :  4.15116e-05
 Reference value :  4.15204e-05
 Reference value :  4.16421e-05
 Reference value :  4.17501e-05
 Reference value :  4.17502e-05
 Reference value :  4.17503e-05
 Reference value :  4.17509e-05
 Reference value :  4.17518e-05
 Reference value :  4.17538e-05
 Reference value :  4.17550e-05
 Reference value :  4.17576e-05
 Reference value :  4.17725e-05
 Reference value :  4.19050e-05
 Reference value :  4.20000e-05
 Reference value :  4.20001e-05
 Reference value :  4.20002e-05
 Reference value :  4.20008e-05
 Reference value :  4.20018e-05
 Reference value :  4.20022e-05
 Reference value :  4.20033e-05
 Reference value :  4.20044e-05
 Reference value :  4.20056e-05
 Reference value :  4.20061e-05
 Reference value :  4.20076e-05
 Reference value :  4.20093e-05
 Reference value :  4.20114e-05
 Reference value :  4.20267e-05
 Reference value :  4.21493e-05
 Reference value :  4.22501e-05
 Reference value :  4.22502e-05
 Reference value :  4.22503e-05
 Reference value :  4.22507e-05
 Reference value :  4.22514e-05
 Reference value :  4.22524e-05
 Reference value :  4.22539e-05
 Reference value :  4.22566e-05
 Reference value :  4.22618e-05
 Reference value :  4.22964e-05
 Reference value :  4.25000e-05
 Reference value :  4.25000e-05
 Reference value :  4.25000e-05
 Reference value :  4.25000e-05
 Reference value :  4.25001e-05
 Reference value :  4.25001e-05
 Reference value :  4.25003e-05
 Reference value :  4.25012e-05
 Reference value :  4.25022e-05
 Reference value :  4.25040e-05
 Reference value :  4.25054e-05
 Reference value :  4.25068e-05
 Reference value :  4.25092e-05
 Reference value :  4.25208e-05
 Reference value :  4.25269e-05
 Reference value :  4.25314e-05
 Reference value :  4.25387e-05
 Reference value :  4.25445e-05
 Reference value :  4.25565e-05
 Reference value :  4.26014e-05
 Reference value :  4.27301e-05
 Reference value :  4.27501e-05
 Reference value :  4.27502e-05
 Reference value :  4.27503e-05
 Reference value :  4.27504e-05
 Reference value :  4.27509e-05
 Reference value :  4.27514e-05
 Reference value :  4.27524e-05
 Reference value :  4.27538e-05
 Reference value :  4.27544e-05
 Reference value :  4.27557e-05
 Reference value :  4.27592e-05
 Reference value :  4.27724e-05
 Reference value :  4.28395e-05
 Reference value :  4.30000e-05
 Reference value :  4.30001e-05
 Reference value :  4.30002e-05
 Reference value :  4.30005e-05
 Reference value :  4.30013e-05
 Reference value :  4.30022e-05
 Reference value :  4.30032e-05
 Reference value :  4.30044e-05
 Reference value :  4.30072e-05
 Reference value :  4.30101e-05
 Reference value :  4.30127e-05
 Reference value :  4.30156e-05
 Reference value :  4.30212e-05
 Reference value :  4.30399e-05
 Reference value :  4.31510e-05
 Reference value :  4.32501e-05
 Reference value :  4.32502e-05
 Reference value :  4.32503e-05
 Reference value :  4.32507e-05
 Reference value :  4.32514e-05
 Reference value :  4.32524e-05
 Reference value :  4.32538e-05
 Reference value :  4.32551e-05
 Reference value :  4.32576e-05
 Reference value :  4.32655e-05
 Reference value :  4.33395e-05
 Reference value :  4.35018e-05
 Reference value :  4.35071e-05
 Reference value :  4.35110e-05
 Reference value :  4.35126e-05
 Reference value :  4.35140e-05
 Reference value :  4.35152e-05
 Reference value :  4.35165e-05
 Reference value :  4.35177e-05
 Reference value :  4.35203e-05
 Reference value :  4.35244e-05
 Reference value :  4.35640e-05
 Reference value :  4.36181e-05
 Reference value :  4.36350e-05
 Reference value :  4.37043e-05
 Reference value :  4.37502e-05
 Reference value :  4.37502e-05
 Reference value :  4.37504e-05
 Reference value :  4.37514e-05
 Reference value :  4.37524e-05
 Reference value :  4.37543e-05
 Reference value :  4.37574e-05
 Reference value :  4.37715e-05
 Reference value :  4.38932e-05
 Reference value :  4.40000e-05
 Reference value :  4.40001e-05
 Reference value :  4.40002e-05
 Reference value :  4.40005e-05
 Reference value :  4.40013e-05
 Reference value :  4.40022e-05
 Reference value :  4.40039e-05
 Reference value :  4.40066e-05
 Reference value :  4.40082e-05
 Reference value :  4.40112e-05
 Reference value :  4.40843e-05
 Reference value :  4.42501e-05
 Reference value :  4.42502e-05
 Reference value :  4.42507e-05
 Reference value :  4.42514e-05
 Reference value :  4.42530e-05
 Reference value :  4.42544e-05
 Reference value :  4.42576e-05
 Reference value :  4.42621e-05
 Reference value :  4.43077e-05
 Reference value :  4.45000e-05
 Reference value :  4.45001e-05
 Reference value :  4.45005e-05
 Reference value :  4.45018e-05
 Reference value :  4.45033e-05
 Reference value :  4.45044e-05
 Reference value :  4.45056e-05
 Reference value :  4.45067e-05
 Reference value :  4.45097e-05
 Reference value :  4.45107e-05
 Reference value :  4.45128e-05
 Reference value :  4.45145e-05
 Reference value :  4.45185e-05
 Reference value :  4.45297e-05
 Reference value :  4.45803e-05
 Reference value :  4.46084e-05
 Reference value :  4.46488e-05
 Reference value :  4.47318e-05
 Reference value :  4.47502e-05
 Reference value :  4.47504e-05
 Reference value :  4.47514e-05
 Reference value :  4.47538e-05
 Reference value :  4.47550e-05
 Reference value :  4.47567e-05
 Reference value :  4.47614e-05
 Reference value :  4.47840e-05
 Reference value :  4.49068e-05
 Reference value :  4.50001e-05
 Reference value :  4.50001e-05
 Reference value :  4.50008e-05
 Reference value :  4.50022e-05
 Reference value :  4.50038e-05
 Reference value :  4.50062e-05
 Reference value :  4.50093e-05
 Reference value :  4.50204e-05
 Reference value :  4.52501e-05
 Reference value :  4.52502e-05
 Reference value :  4.52509e-05
 Reference value :  4.52524e-05
 Reference value :  4.52544e-05
 Reference value :  4.52576e-05
 Reference value :  4.53049e-05
 Reference value :  4.55001e-05
 Reference value :  4.55002e-05
 Reference value :  4.55013e-05
 Reference value :  4.55027e-05
 Reference value :  4.55039e-05
 Reference value :  4.55050e-05
 Reference value :  4.55061e-05
 Reference value :  4.55100e-05
 Reference value :  4.55128e-05
 Reference value :  4.55149e-05
 Reference value :  4.55171e-05
 Reference value :  4.55211e-05
 Reference value :  4.55282e-05
 Reference value :  4.55332e-05
 Reference value :  4.55429e-05
 Reference value :  4.55535e-05
 Reference value :  4.55755e-05
 Reference value :  4.57471e-05
 Reference value :  4.57502e-05
 Reference value :  4.57503e-05
 Reference value :  4.57509e-05
 Reference value :  4.57514e-05
 Reference value :  4.57524e-05
 Reference value :  4.57537e-05
 Reference value :  4.57551e-05
 Reference value :  4.57567e-05
 Reference value :  4.57618e-05
 Reference value :  4.57846e-05
 Reference value :  4.59006e-05
 Reference value :  4.60018e-05
 Reference value :  4.60055e-05
 Reference value :  4.60074e-05
 Reference value :  4.60108e-05
 Reference value :  4.60145e-05
 Reference value :  4.60314e-05
 Reference value :  4.61526e-05
 Reference value :  4.62501e-05
 Reference value :  4.62502e-05
 Reference value :  4.62504e-05
 Reference value :  4.62514e-05
 Reference value :  4.62524e-05
 Reference value :  4.62537e-05
 Reference value :  4.62548e-05
 Reference value :  4.62562e-05
 Reference value :  4.62580e-05
 Reference value :  4.62602e-05
 Reference value :  4.62638e-05
 Reference value :  4.62824e-05
 Reference value :  4.63742e-05
 Reference value :  4.65000e-05
 Reference value :  4.65001e-05
 Reference value :  4.65003e-05
 Reference value :  4.65013e-05
 Reference value :  4.65027e-05
 Reference value :  4.65044e-05
 Reference value :  4.65056e-05
 Reference value :  4.65067e-05
 Reference value :  4.65097e-05
 Reference value :  4.65118e-05
 Reference value :  4.65137e-05
 Reference value :  4.65155e-05
 Reference value :  4.65185e-05
 Reference value :  4.65231e-05
 Reference value :  4.65412e-05
 Reference value :  4.65563e-05
 Reference value :  4.65676e-05
 Reference value :  4.65855e-05
 Reference value :  4.65968e-05
 Reference value :  4.66130e-05
 Reference value :  4.66280e-05
 Reference value :  4.66517e-05
 Reference value :  4.66861e-05
 Reference value :  4.67501e-05
 Reference value :  4.67502e-05
 Reference value :  4.67503e-05
 Reference value :  4.67507e-05
 Reference value :  4.67514e-05
 Reference value :  4.67530e-05
 Reference value :  4.67551e-05
 Reference value :  4.67579e-05
 Reference value :  4.67730e-05
 Reference value :  4.69020e-05
 Reference value :  4.70000e-05
 Reference value :  4.70001e-05
 Reference value :  4.70002e-05
 Reference value :  4.70008e-05
 Reference value :  4.70018e-05
 Reference value :  4.70026e-05
 Reference value :  4.70047e-05
 Reference value :  4.70066e-05
 Reference value :  4.70073e-05
 Reference value :  4.70090e-05
 Reference value :  4.70124e-05
 Reference value :  4.70476e-05
 Reference value :  4.72501e-05
 Reference value :  4.72502e-05
 Reference value :  4.72503e-05
 Reference value :  4.72507e-05
 Reference value :  4.72514e-05
 Reference value :  4.72524e-05
 Reference value :  4.72538e-05
 Reference value :  4.72550e-05
 Reference value :  4.72567e-05
 Reference value :  4.72584e-05
 Reference value :  4.72621e-05
 Reference value :  4.72752e-05
 Reference value :  4.74240e-05
 Reference value :  4.75000e-05
 Reference value :  4.75001e-05
 Reference value :  4.75002e-05
 Reference value :  4.75008e-05
 Reference value :  4.75018e-05
 Reference value :  4.75027e-05
 Reference value :  4.75039e-05
 Reference value :  4.75050e-05
 Reference value :  4.75056e-05
 Reference value :  4.75067e-05
 Reference value :  4.75097e-05
 Reference value :  4.75107e-05
 Reference value :  4.75129e-05
 Reference value :  4.75145e-05
 Reference value :  4.75165e-05
 Reference value :  4.75188e-05
 Reference value :  4.75239e-05
 Reference value :  4.75307e-05
 Reference value :  4.75405e-05
 Reference value :  4.75453e-05
 Reference value :  4.75629e-05
 Reference value :  4.75825e-05
 Reference value :  4.76154e-05
 Reference value :  4.76308e-05
 Reference value :  4.76450e-05
 Reference value :  4.76688e-05
 Reference value :  4.77000e-05
 Reference value :  4.77501e-05
 Reference value :  4.77502e-05
 Reference value :  4.77502e-05
 Reference value :  4.77504e-05
 Reference value :  4.77514e-05
 Reference value :  4.77530e-05
 Reference value :  4.77544e-05
 Reference value :  4.77568e-05
 Reference value :  4.77661e-05
 Reference value :  4.78386e-05
 Reference value :  4.80000e-05
 Reference value :  4.80001e-05
 Reference value :  4.80002e-05
 Reference value :  4.80005e-05
 Reference value :  4.80013e-05
 Reference value :  4.80022e-05
 Reference value :  4.80039e-05
 Reference value :  4.80055e-05
 Reference value :  4.80073e-05
 Reference value :  4.80090e-05
 Reference value :  4.80149e-05
 Reference value :  4.81600e-05
 Reference value :  4.82501e-05
 Reference value :  4.82502e-05
 Reference value :  4.82507e-05
 Reference value :  4.82514e-05
 Reference value :  4.82530e-05
 Reference value :  4.82544e-05
 Reference value :  4.82567e-05
 Reference value :  4.82593e-05
 Reference value :  4.82683e-05
 Reference value :  4.83476e-05
 Reference value :  4.85000e-05
 Reference value :  4.85001e-05
 Reference value :  4.85002e-05
 Reference value :  4.85008e-05
 Reference value :  4.85018e-05
 Reference value :  4.85027e-05
 Reference value :  4.85033e-05
 Reference value :  4.85044e-05
 Reference value :  4.85056e-05
 Reference value :  4.85067e-05
 Reference value :  4.85097e-05
 Reference value :  4.85107e-05
 Reference value :  4.85129e-05
 Reference value :  4.85145e-05
 Reference value :  4.85176e-05
 Reference value :  4.85217e-05
 Reference value :  4.85286e-05
 Reference value :  4.85368e-05
 Reference value :  4.85493e-05
 Reference value :  4.85586e-05
 Reference value :  4.85832e-05
 Reference value :  4.86532e-05
 Reference value :  4.87263e-05
 Reference value :  4.87501e-05
 Reference value :  4.87502e-05
 Reference value :  4.87504e-05
 Reference value :  4.87514e-05
 Reference value :  4.87530e-05
 Reference value :  4.87543e-05
 Reference value :  4.87566e-05
 Reference value :  4.87614e-05
 Reference value :  4.88022e-05
 Reference value :  4.88666e-05
 Reference value :  4.90000e-05
 Reference value :  4.90001e-05
 Reference value :  4.90001e-05
 Reference value :  4.90003e-05
 Reference value :  4.90013e-05
 Reference value :  4.90022e-05
 Reference value :  4.90039e-05
 Reference value :  4.90055e-05
 Reference value :  4.90073e-05
 Reference value :  4.90090e-05
 Reference value :  4.90124e-05
 Reference value :  4.90849e-05
 Reference value :  4.92501e-05
 Reference value :  4.92502e-05
 Reference value :  4.92503e-05
 Reference value :  4.92509e-05
 Reference value :  4.92518e-05
 Reference value :  4.92538e-05
 Reference value :  4.92550e-05
 Reference value :  4.92576e-05
 Reference value :  4.92607e-05
 Reference value :  4.92752e-05
 Reference value :  4.94227e-05
 Reference value :  4.95001e-05
 Reference value :  4.95002e-05
 Reference value :  4.95008e-05
 Reference value :  4.95018e-05
 Reference value :  4.95033e-05
 Reference value :  4.95044e-05
 Reference value :  4.95056e-05
 Reference value :  4.95067e-05
 Reference value :  4.95097e-05
 Reference value :  4.95107e-05
 Reference value :  4.95137e-05
 Reference value :  4.95165e-05
 Reference value :  4.95197e-05
[...]
 Reference value :  1.67253e-04
 Reference value :  1.67254e-04
 Reference value :  1.67257e-04
 Reference value :  1.67265e-04
 Reference value :  1.67340e-04
 Reference value :  1.67500e-04
 Reference value :  1.67500e-04
 Reference value :  1.67500e-04
 Reference value :  1.67501e-04
 Reference value :  1.67502e-04
 Reference value :  1.67503e-04
 Reference value :  1.67504e-04
 Reference value :  1.67506e-04
 Reference value :  1.67506e-04
 Reference value :  1.67508e-04
 Reference value :  1.67510e-04
 Reference value :  1.67513e-04
 Reference value :  1.67514e-04
 Reference value :  1.67516e-04
 Reference value :  1.67517e-04
 Reference value :  1.67519e-04
 Reference value :  1.67526e-04
 Reference value :  1.67535e-04
 Reference value :  1.67542e-04
 Reference value :  1.67551e-04
 Reference value :  1.67556e-04
 Reference value :  1.67574e-04
 Reference value :  1.67613e-04
 Reference value :  1.67735e-04
 Reference value :  1.67750e-04
 Reference value :  1.67750e-04
 Reference value :  1.67750e-04
 Reference value :  1.67751e-04
 Reference value :  1.67751e-04
 Reference value :  1.67752e-04
 Reference value :  1.67754e-04
 Reference value :  1.67755e-04
 Reference value :  1.67757e-04
 Reference value :  1.67762e-04
 Reference value :  1.67785e-04
 Reference value :  1.67901e-04
 Reference value :  1.68000e-04
 Reference value :  1.68000e-04
 Reference value :  1.68000e-04
 Reference value :  1.68000e-04
 Reference value :  1.68001e-04
 Reference value :  1.68002e-04
 Reference value :  1.68004e-04
 Reference value :  1.68005e-04
 Reference value :  1.68007e-04
 Reference value :  1.68007e-04
 Reference value :  1.68009e-04
 Reference value :  1.68011e-04
 Reference value :  1.68020e-04
 Reference value :  1.68085e-04
 Reference value :  1.68250e-04
 Reference value :  1.68250e-04
 Reference value :  1.68250e-04
 Reference value :  1.68250e-04
 Reference value :  1.68251e-04
 Reference value :  1.68251e-04
 Reference value :  1.68252e-04
 Reference value :  1.68254e-04
 Reference value :  1.68254e-04
 Reference value :  1.68256e-04
 Reference value :  1.68258e-04
 Reference value :  1.68259e-04
 Reference value :  1.68265e-04
 Reference value :  1.68287e-04
 Reference value :  1.68424e-04
 Reference value :  1.68500e-04
 Reference value :  1.68500e-04
 Reference value :  1.68500e-04
 Reference value :  1.68501e-04
 Reference value :  1.68501e-04
 Reference value :  1.68502e-04
 Reference value :  1.68503e-04
 Reference value :  1.68504e-04
 Reference value :  1.68506e-04
 Reference value :  1.68507e-04
 Reference value :  1.68508e-04
 Reference value :  1.68511e-04
 Reference value :  1.68513e-04
 Reference value :  1.68514e-04
 Reference value :  1.68518e-04
 Reference value :  1.68522e-04
 Reference value :  1.68532e-04
 Reference value :  1.68566e-04
 Reference value :  1.68581e-04
 Reference value :  1.68594e-04
 Reference value :  1.68639e-04
 Reference value :  1.68727e-04
 Reference value :  1.68750e-04
 Reference value :  1.68750e-04
 Reference value :  1.68750e-04
 Reference value :  1.68751e-04
 Reference value :  1.68751e-04
 Reference value :  1.68752e-04
 Reference value :  1.68754e-04
 Reference value :  1.68754e-04
 Reference value :  1.68756e-04
 Reference value :  1.68758e-04
 Reference value :  1.68761e-04
 Reference value :  1.68784e-04
 Reference value :  1.68840e-04
 Reference value :  1.69000e-04
 Reference value :  1.69000e-04
 Reference value :  1.69000e-04
 Reference value :  1.69000e-04
 Reference value :  1.69000e-04
 Reference value :  1.69001e-04
 Reference value :  1.69001e-04
 Reference value :  1.69002e-04
 Reference value :  1.69003e-04
 Reference value :  1.69004e-04
 Reference value :  1.69006e-04
 Reference value :  1.69008e-04
 Reference value :  1.69010e-04
 Reference value :  1.69013e-04
 Reference value :  1.69028e-04
 Reference value :  1.69142e-04
 Reference value :  1.69250e-04
 Reference value :  1.69250e-04
 Reference value :  1.69251e-04
 Reference value :  1.69251e-04
 Reference value :  1.69253e-04
 Reference value :  1.69254e-04
 Reference value :  1.69257e-04
 Reference value :  1.69265e-04
 Reference value :  1.69405e-04
 Reference value :  1.69500e-04
 Reference value :  1.69500e-04
 Reference value :  1.69500e-04
 Reference value :  1.69500e-04
 Reference value :  1.69501e-04
 Reference value :  1.69502e-04
 Reference value :  1.69503e-04
 Reference value :  1.69504e-04
 Reference value :  1.69505e-04
 Reference value :  1.69506e-04
 Reference value :  1.69506e-04
 Reference value :  1.69508e-04
 Reference value :  1.69509e-04
 Reference value :  1.69511e-04
 Reference value :  1.69527e-04
 Reference value :  1.69650e-04
 Reference value :  1.69750e-04
 Reference value :  1.69750e-04
 Reference value :  1.69750e-04
 Reference value :  1.69751e-04
 Reference value :  1.69751e-04
 Reference value :  1.69753e-04
 Reference value :  1.69755e-04
 Reference value :  1.69757e-04
 Reference value :  1.69762e-04
 Reference value :  1.69781e-04
 Reference value :  1.69884e-04
 Reference value :  1.70000e-04
 Reference value :  1.70000e-04
 Reference value :  1.70000e-04
 Reference value :  1.70000e-04
 Reference value :  1.70000e-04
 Reference value :  1.70000e-04
 Reference value :  1.70000e-04
 Reference value :  1.70000e-04
 Reference value :  1.70001e-04
 Reference value :  1.70002e-04
 Reference value :  1.70003e-04
 Reference value :  1.70005e-04
 Reference value :  1.70006e-04
 Reference value :  1.70009e-04
 Reference value :  1.70027e-04
 Reference value :  1.70031e-04
 Reference value :  1.70039e-04
 Reference value :  1.70051e-04
 Reference value :  1.70082e-04
 Reference value :  1.70220e-04
 Reference value :  1.70250e-04
 Reference value :  1.70250e-04
 Reference value :  1.70251e-04
 Reference value :  1.70251e-04
 Reference value :  1.70253e-04
 Reference value :  1.70254e-04
 Reference value :  1.70257e-04
 Reference value :  1.70266e-04
 Reference value :  1.70339e-04
 Reference value :  1.70500e-04
 Reference value :  1.70500e-04
 Reference value :  1.70500e-04
 Reference value :  1.70500e-04
 Reference value :  1.70501e-04
 Reference value :  1.70502e-04
 Reference value :  1.70503e-04
 Reference value :  1.70504e-04
 Reference value :  1.70507e-04
 Reference value :  1.70510e-04
 Reference value :  1.70513e-04
 Reference value :  1.70516e-04
 Reference value :  1.70521e-04
 Reference value :  1.70556e-04
 Reference value :  1.70750e-04
 Reference value :  1.70750e-04
 Reference value :  1.70750e-04
 Reference value :  1.70750e-04
 Reference value :  1.70751e-04
 Reference value :  1.70752e-04
 Reference value :  1.70753e-04
 Reference value :  1.70754e-04
 Reference value :  1.70757e-04
 Reference value :  1.70761e-04
 Reference value :  1.70784e-04
 Reference value :  1.70905e-04
 Reference value :  1.71000e-04
 Reference value :  1.71000e-04
 Reference value :  1.71000e-04
 Reference value :  1.71001e-04
 Reference value :  1.71002e-04
 Reference value :  1.71003e-04
 Reference value :  1.71004e-04
 Reference value :  1.71004e-04
 Reference value :  1.71006e-04
 Reference value :  1.71006e-04
 Reference value :  1.71008e-04
 Reference value :  1.71010e-04
 Reference value :  1.71013e-04
 Reference value :  1.71015e-04
 Reference value :  1.71017e-04
 Reference value :  1.71021e-04
 Reference value :  1.71041e-04
 Reference value :  1.71080e-04
 Reference value :  1.71104e-04
 Reference value :  1.71138e-04
 Reference value :  1.71157e-04
 Reference value :  1.71183e-04
 Reference value :  1.71250e-04
 Reference value :  1.71250e-04
 Reference value :  1.71250e-04
 Reference value :  1.71251e-04
 Reference value :  1.71252e-04
 Reference value :  1.71253e-04
 Reference value :  1.71254e-04
 Reference value :  1.71257e-04
 Reference value :  1.71266e-04
 Reference value :  1.71339e-04
 Reference value :  1.71500e-04
 Reference value :  1.71500e-04
 Reference value :  1.71500e-04
 Reference value :  1.71501e-04
 Reference value :  1.71502e-04
 Reference value :  1.71503e-04
 Reference value :  1.71504e-04
 Reference value :  1.71505e-04
 Reference value :  1.71507e-04
 Reference value :  1.71507e-04
 Reference value :  1.71509e-04
 Reference value :  1.71511e-04
 Reference value :  1.71520e-04
 Reference value :  1.71659e-04
 Reference value :  1.71750e-04
 Reference value :  1.71750e-04
 Reference value :  1.71750e-04
 Reference value :  1.71751e-04
 Reference value :  1.71752e-04
 Reference value :  1.71754e-04
 Reference value :  1.71755e-04
 Reference value :  1.71758e-04
 Reference value :  1.71759e-04
 Reference value :  1.71768e-04
 Reference value :  1.71926e-04
 Reference value :  1.72000e-04
 Reference value :  1.72000e-04
 Reference value :  1.72000e-04
 Reference value :  1.72001e-04
 Reference value :  1.72002e-04
 Reference value :  1.72003e-04
 Reference value :  1.72004e-04
 Reference value :  1.72006e-04
 Reference value :  1.72007e-04
 Reference value :  1.72008e-04
 Reference value :  1.72011e-04
 Reference value :  1.72013e-04
 Reference value :  1.72014e-04
 Reference value :  1.72016e-04
 Reference value :  1.72019e-04
 Reference value :  1.72021e-04
 Reference value :  1.72038e-04
 Reference value :  1.72063e-04
 Reference value :  1.72089e-04
 Reference value :  1.72105e-04
 Reference value :  1.72135e-04
 Reference value :  1.72211e-04
 Reference value :  1.72250e-04
 Reference value :  1.72250e-04
 Reference value :  1.72251e-04
 Reference value :  1.72253e-04
 Reference value :  1.72254e-04
 Reference value :  1.72257e-04
 Reference value :  1.72272e-04
 Reference value :  1.72500e-04
 Reference value :  1.72500e-04
 Reference value :  1.72500e-04
 Reference value :  1.72501e-04
 Reference value :  1.72503e-04
 Reference value :  1.72504e-04
 Reference value :  1.72507e-04
 Reference value :  1.72510e-04
 Reference value :  1.72529e-04
 Reference value :  1.72750e-04
 Reference value :  1.72750e-04
 Reference value :  1.72750e-04
 Reference value :  1.72751e-04
 Reference value :  1.72752e-04
 Reference value :  1.72754e-04
 Reference value :  1.72758e-04
 Reference value :  1.72784e-04
 Reference value :  1.73000e-04
 Reference value :  1.73000e-04
 Reference value :  1.73000e-04
 Reference value :  1.73001e-04
 Reference value :  1.73002e-04
 Reference value :  1.73003e-04
 Reference value :  1.73004e-04
 Reference value :  1.73004e-04
 Reference value :  1.73006e-04
 Reference value :  1.73007e-04
 Reference value :  1.73010e-04
 Reference value :  1.73013e-04
 Reference value :  1.73015e-04
 Reference value :  1.73017e-04
 Reference value :  1.73021e-04
 Reference value :  1.73032e-04
 Reference value :  1.73039e-04
 Reference value :  1.73044e-04
 Reference value :  1.73051e-04
 Reference value :  1.73059e-04
 Reference value :  1.73089e-04
 Reference value :  1.73186e-04
 Reference value :  1.73250e-04
 Reference value :  1.73250e-04
 Reference value :  1.73250e-04
 Reference value :  1.73251e-04
 Reference value :  1.73252e-04
 Reference value :  1.73254e-04
 Reference value :  1.73256e-04
 Reference value :  1.73259e-04
 Reference value :  1.73285e-04
 Reference value :  1.73401e-04
 Reference value :  1.73500e-04
 Reference value :  1.73500e-04
 Reference value :  1.73500e-04
 Reference value :  1.73501e-04
 Reference value :  1.73502e-04
 Reference value :  1.73504e-04
 Reference value :  1.73507e-04
 Reference value :  1.73508e-04
 Reference value :  1.73511e-04
 Reference value :  1.73548e-04
 Reference value :  1.73750e-04
 Reference value :  1.73750e-04
 Reference value :  1.73751e-04
 Reference value :  1.73752e-04
 Reference value :  1.73754e-04
 Reference value :  1.73754e-04
 Reference value :  1.73756e-04
 Reference value :  1.73758e-04
 Reference value :  1.73759e-04
 Reference value :  1.73765e-04
 Reference value :  1.73787e-04
 Reference value :  1.74000e-04
 Reference value :  1.74000e-04
 Reference value :  1.74000e-04
 Reference value :  1.74000e-04
 Reference value :  1.74001e-04
 Reference value :  1.74002e-04
 Reference value :  1.74003e-04
 Reference value :  1.74004e-04
 Reference value :  1.74004e-04
 Reference value :  1.74006e-04
 Reference value :  1.74007e-04
 Reference value :  1.74010e-04
 Reference value :  1.74011e-04
 Reference value :  1.74013e-04
 Reference value :  1.74015e-04
 Reference value :  1.74016e-04
 Reference value :  1.74019e-04
 Reference value :  1.74023e-04
 Reference value :  1.74038e-04
 Reference value :  1.74047e-04
 Reference value :  1.74053e-04
 Reference value :  1.74063e-04
 Reference value :  1.74087e-04
 Reference value :  1.74129e-04
 Reference value :  1.74162e-04
 Reference value :  1.74194e-04
 Reference value :  1.74221e-04
 Reference value :  1.74250e-04
 Reference value :  1.74250e-04
 Reference value :  1.74250e-04
 Reference value :  1.74250e-04
 Reference value :  1.74251e-04
 Reference value :  1.74251e-04
 Reference value :  1.74252e-04
 Reference value :  1.74254e-04
 Reference value :  1.74255e-04
 Reference value :  1.74257e-04
 Reference value :  1.74266e-04
 Reference value :  1.74376e-04
 Reference value :  1.74500e-04
 Reference value :  1.74500e-04
 Reference value :  1.74500e-04
 Reference value :  1.74502e-04
 Reference value :  1.74503e-04
 Reference value :  1.74505e-04
 Reference value :  1.74507e-04
 Reference value :  1.74508e-04
 Reference value :  1.74511e-04
 Reference value :  1.74548e-04
 Reference value :  1.74750e-04
 Reference value :  1.74750e-04
 Reference value :  1.74751e-04
 Reference value :  1.74752e-04
 Reference value :  1.74754e-04
 Reference value :  1.74756e-04
 Reference value :  1.74758e-04
 Reference value :  1.74759e-04
 Reference value :  1.74765e-04
 Reference value :  1.74787e-04
 Reference value :  1.75000e-04
 Reference value :  1.75000e-04
 Reference value :  1.75000e-04
 Reference value :  1.75000e-04
 Reference value :  1.75001e-04
 Reference value :  1.75002e-04
 Reference value :  1.75003e-04
 Reference value :  1.75004e-04
 Reference value :  1.75006e-04
 Reference value :  1.75007e-04
 Reference value :  1.75010e-04
 Reference value :  1.75012e-04
 Reference value :  1.75014e-04
 Reference value :  1.75016e-04
 Reference value :  1.75019e-04
 Reference value :  1.75021e-04
 Reference value :  1.75025e-04
 Reference value :  1.75029e-04
 Reference value :  1.75033e-04
 Reference value :  1.75044e-04
 Reference value :  1.75073e-04
 Reference value :  1.75175e-04
 Reference value :  1.75250e-04
 Reference value :  1.75250e-04
 Reference value :  1.75250e-04
 Reference value :  1.75251e-04
 Reference value :  1.75251e-04
 Reference value :  1.75252e-04
 Reference value :  1.75254e-04
 Reference value :  1.75254e-04
 Reference value :  1.75256e-04
 Reference value :  1.75258e-04
 Reference value :  1.75265e-04
 Reference value :  1.75340e-04
 Reference value :  1.75500e-04
 Reference value :  1.75500e-04
 Reference value :  1.75500e-04
 Reference value :  1.75501e-04
 Reference value :  1.75501e-04
 Reference value :  1.75502e-04
 Reference value :  1.75504e-04
 Reference value :  1.75507e-04
 Reference value :  1.75509e-04
 Reference value :  1.75513e-04
 Reference value :  1.75529e-04
 Reference value :  1.75750e-04
 Reference value :  1.75750e-04
 Reference value :  1.75750e-04
 Reference value :  1.75750e-04
 Reference value :  1.75751e-04
 Reference value :  1.75751e-04
 Reference value :  1.75752e-04
 Reference value :  1.75754e-04
 Reference value :  1.75755e-04
 Reference value :  1.75758e-04
 Reference value :  1.75765e-04
 Reference value :  1.75805e-04
 Reference value :  1.76000e-04
 Reference value :  1.76000e-04
 Reference value :  1.76000e-04
 Reference value :  1.76000e-04
 Reference value :  1.76001e-04
 Reference value :  1.76002e-04
 Reference value :  1.76003e-04
 Reference value :  1.76004e-04
 Reference value :  1.76006e-04
 Reference value :  1.76007e-04
 Reference value :  1.76010e-04
 Reference value :  1.76013e-04
 Reference value :  1.76014e-04
 Reference value :  1.76016e-04
 Reference value :  1.76017e-04
 Reference value :  1.76019e-04
 Reference value :  1.76023e-04
 Reference value :  1.76030e-04
 Reference value :  1.76041e-04
 Reference value :  1.76045e-04
 Reference value :  1.76053e-04
 Reference value :  1.76070e-04
 Reference value :  1.76101e-04
 Reference value :  1.76250e-04
 Reference value :  1.76250e-04
 Reference value :  1.76250e-04
 Reference value :  1.76251e-04
 Reference value :  1.76251e-04
 Reference value :  1.76252e-04
 Reference value :  1.76254e-04
 Reference value :  1.76256e-04
 Reference value :  1.76259e-04
 Reference value :  1.76273e-04
 Reference value :  1.76338e-04
 Reference value :  1.76500e-04
 Reference value :  1.76500e-04
 Reference value :  1.76500e-04
 Reference value :  1.76500e-04
 Reference value :  1.76501e-04
 Reference value :  1.76502e-04
 Reference value :  1.76504e-04
 Reference value :  1.76506e-04
 Reference value :  1.76507e-04
 Reference value :  1.76509e-04
 Reference value :  1.76512e-04
 Reference value :  1.76548e-04
 Reference value :  1.76750e-04
 Reference value :  1.76750e-04
 Reference value :  1.76750e-04
 Reference value :  1.76751e-04
 Reference value :  1.76752e-04
 Reference value :  1.76754e-04
 Reference value :  1.76755e-04
 Reference value :  1.76757e-04
 Reference value :  1.76758e-04
 Reference value :  1.76762e-04
 Reference value :  1.76787e-04
 Reference value :  1.77000e-04
 Reference value :  1.77000e-04
 Reference value :  1.77000e-04
 Reference value :  1.77000e-04
 Reference value :  1.77001e-04
 Reference value :  1.77002e-04
 Reference value :  1.77003e-04
 Reference value :  1.77004e-04
 Reference value :  1.77006e-04
 Reference value :  1.77006e-04
 Reference value :  1.77008e-04
 Reference value :  1.77011e-04
 Reference value :  1.77013e-04
 Reference value :  1.77014e-04
 Reference value :  1.77016e-04
 Reference value :  1.77018e-04
 Reference value :  1.77020e-04
 Reference value :  1.77023e-04
 Reference value :  1.77030e-04
 Reference value :  1.77042e-04
 Reference value :  1.77055e-04
 Reference value :  1.77080e-04
 Reference value :  1.77159e-04
 Reference value :  1.77250e-04
 Reference value :  1.77250e-04
 Reference value :  1.77250e-04
 Reference value :  1.77251e-04
 Reference value :  1.77251e-04
 Reference value :  1.77253e-04
 Reference value :  1.77254e-04
 Reference value :  1.77257e-04
 Reference value :  1.77261e-04
 Reference value :  1.77305e-04
 Reference value :  1.77500e-04
 Reference value :  1.77500e-04
 Reference value :  1.77500e-04
 Reference value :  1.77500e-04
 Reference value :  1.77501e-04
 Reference value :  1.77502e-04
 Reference value :  1.77503e-04
 Reference value :  1.77504e-04
 Reference value :  1.77506e-04
 Reference value :  1.77508e-04
 Reference value :  1.77510e-04
 Reference value :  1.77513e-04
 Reference value :  1.77545e-04
 Reference value :  1.77750e-04
 Reference value :  1.77750e-04
 Reference value :  1.77750e-04
 Reference value :  1.77750e-04
 Reference value :  1.77751e-04
 Reference value :  1.77753e-04
 Reference value :  1.77754e-04
 Reference value :  1.77757e-04
 Reference value :  1.77765e-04
 Reference value :  1.77840e-04
 Reference value :  1.78000e-04
 Reference value :  1.78000e-04
 Reference value :  1.78000e-04
 Reference value :  1.78000e-04
 Reference value :  1.78001e-04
 Reference value :  1.78002e-04
 Reference value :  1.78003e-04
 Reference value :  1.78004e-04
 Reference value :  1.78006e-04
 Reference value :  1.78006e-04
 Reference value :  1.78008e-04
 Reference value :  1.78009e-04
 Reference value :  1.78010e-04
 Reference value :  1.78027e-04
 Reference value :  1.78149e-04
 Reference value :  1.78250e-04
 Reference value :  1.78250e-04
 Reference value :  1.78250e-04
 Reference value :  1.78251e-04
 Reference value :  1.78252e-04
 Reference value :  1.78253e-04
 Reference value :  1.78254e-04
 Reference value :  1.78256e-04
 Reference value :  1.78259e-04
 Reference value :  1.78281e-04
 Reference value :  1.78497e-04
No. of Data Rows : 26141
ngspice-44 done
