
Note: Compatibility modes selected: hs a


Circuit: ** sch_path: /home/ece/cace/sar-adc-using-sky130-pdk/runs/run_2025-09-11_00-35-49/parameters/dnl/run_0/sar_output_dnl.sch

option SCALE: Scale is set to 1e-06 for instance and model parameters
option SCALE: Scale is set to 1e-06 for instance and model parameters
option SCALE: Scale is set to 1e-06 for instance and model parameters
option SCALE: Scale is set to 1e-06 for instance and model parameters
Doing analysis at TEMP = 27.000000 and TNOM = 27.000000

Using KLU as Direct Linear Solver
Operating point simulation skipped by 'uic',
  now using transient initial conditions.
 Reference value :  1.00000e-12
 Reference value :  1.02772e-12
 Reference value :  1.08316e-12
 Reference value :  1.19404e-12
 Reference value :  1.33846e-12
 Reference value :  1.62729e-12
 Reference value :  2.20497e-12
 Reference value :  3.05914e-12
 Reference value :  3.96173e-12
 Reference value :  5.17490e-12
 Reference value :  6.89067e-12
 Reference value :  1.02463e-11
 Reference value :  1.40849e-11
 Reference value :  2.08990e-11
 Reference value :  2.76609e-11
 Reference value :  3.67521e-11
 Reference value :  4.80748e-11
 Reference value :  6.53424e-11
 Reference value :  8.54103e-11
 Reference value :  1.00000e-10
 Reference value :  1.01233e-10
 Reference value :  1.03698e-10
 Reference value :  1.08629e-10
 Reference value :  1.18492e-10
 Reference value :  1.38216e-10
 Reference value :  1.77665e-10
 Reference value :  2.56563e-10
 Reference value :  4.08394e-10
 Reference value :  5.72209e-10
 Reference value :  8.39344e-10
 Reference value :  1.18637e-09
 Reference value :  1.63892e-09
 Reference value :  2.26195e-09
 Reference value :  3.06469e-09
 Reference value :  3.89637e-09
 Reference value :  4.56331e-09
 Reference value :  5.34020e-09
 Reference value :  6.26693e-09
 Reference value :  7.25686e-09
 Reference value :  8.46494e-09
 Reference value :  9.80918e-09
 Reference value :  1.07322e-08
 Reference value :  1.16082e-08
 Reference value :  1.25744e-08
 Reference value :  1.36043e-08
 Reference value :  1.56641e-08
 Reference value :  1.83573e-08
 Reference value :  2.17911e-08
 Reference value :  2.53332e-08
 Reference value :  2.83044e-08
 Reference value :  3.15732e-08
 Reference value :  3.46296e-08
 Reference value :  3.78055e-08
 Reference value :  4.23338e-08
 Reference value :  5.00917e-08
 Reference value :  6.33204e-08
 Reference value :  8.56999e-08
 Reference value :  1.26966e-07
 Reference value :  1.84767e-07
 Reference value :  2.37641e-07
 Reference value :  2.50100e-07
 Reference value :  2.50110e-07
 Reference value :  2.50130e-07
 Reference value :  2.50170e-07
 Reference value :  2.50200e-07
 Reference value :  2.50201e-07
 Reference value :  2.50202e-07
 Reference value :  2.50204e-07
 Reference value :  2.50208e-07
 Reference value :  2.50216e-07
 Reference value :  2.50233e-07
 Reference value :  2.50266e-07
 Reference value :  2.50332e-07
 Reference value :  2.50410e-07
 Reference value :  2.50565e-07
 Reference value :  2.50712e-07
 Reference value :  2.51007e-07
 Reference value :  2.51337e-07
 Reference value :  2.51818e-07
 Reference value :  2.52369e-07
 Reference value :  2.52973e-07
 Reference value :  2.53865e-07
 Reference value :  2.54617e-07
 Reference value :  2.55426e-07
 Reference value :  2.56214e-07
 Reference value :  2.57070e-07
 Reference value :  2.57896e-07
 Reference value :  2.59397e-07
 Reference value :  2.61440e-07
 Reference value :  2.63593e-07
 Reference value :  2.67013e-07
 Reference value :  2.71808e-07
 Reference value :  2.81396e-07
 Reference value :  3.00574e-07
 Reference value :  3.36515e-07
 Reference value :  4.08397e-07
 Reference value :  5.00000e-07
 Reference value :  5.00010e-07
 Reference value :  5.00030e-07
 Reference value :  5.00070e-07
 Reference value :  5.00100e-07
 Reference value :  5.00104e-07
 Reference value :  5.00113e-07
 Reference value :  5.00130e-07
 Reference value :  5.00163e-07
 Reference value :  5.00231e-07
 Reference value :  5.00366e-07
 Reference value :  5.00553e-07
 Reference value :  5.00927e-07
 Reference value :  5.01510e-07
 Reference value :  5.02042e-07
 Reference value :  5.02618e-07
 Reference value :  5.03247e-07
 Reference value :  5.04059e-07
 Reference value :  5.04791e-07
 Reference value :  5.05614e-07
 Reference value :  5.06653e-07
 Reference value :  5.07722e-07
 Reference value :  5.09650e-07
 Reference value :  5.12141e-07
 Reference value :  5.13891e-07
 Reference value :  5.15918e-07
 Reference value :  5.18210e-07
 Reference value :  5.20533e-07
 Reference value :  5.23145e-07
 Reference value :  5.27752e-07
 Reference value :  5.34271e-07
 Reference value :  5.44455e-07
 Reference value :  5.64673e-07
 Reference value :  5.96344e-07
 Reference value :  6.57163e-07
 Reference value :  7.50100e-07
 Reference value :  7.50110e-07
 Reference value :  7.50130e-07
 Reference value :  7.50170e-07
 Reference value :  7.50200e-07
 Reference value :  7.50201e-07
 Reference value :  7.50202e-07
 Reference value :  7.50205e-07
 Reference value :  7.50211e-07
 Reference value :  7.50223e-07
 Reference value :  7.50247e-07
 Reference value :  7.50295e-07
 Reference value :  7.50390e-07
 Reference value :  7.50580e-07
 Reference value :  7.50954e-07
 Reference value :  7.51429e-07
 Reference value :  7.51992e-07
 Reference value :  7.52594e-07
 Reference value :  7.53250e-07
 Reference value :  7.54105e-07
 Reference value :  7.54726e-07
 Reference value :  7.55454e-07
 Reference value :  7.56124e-07
 Reference value :  7.56857e-07
 Reference value :  7.57770e-07
 Reference value :  7.58766e-07
 Reference value :  7.59797e-07
 Reference value :  7.61313e-07
 Reference value :  7.62882e-07
 Reference value :  7.65189e-07
 Reference value :  7.67902e-07
 Reference value :  7.72090e-07
 Reference value :  7.80466e-07
 Reference value :  7.92921e-07
 Reference value :  8.17831e-07
 Reference value :  8.67650e-07
 Reference value :  9.67290e-07
 Reference value :  1.00000e-06
 Reference value :  1.00001e-06
 Reference value :  1.00003e-06
 Reference value :  1.00007e-06
 Reference value :  1.00010e-06
 Reference value :  1.00010e-06
 Reference value :  1.00011e-06
 Reference value :  1.00013e-06
 Reference value :  1.00016e-06
 Reference value :  1.00023e-06
 Reference value :  1.00037e-06
 Reference value :  1.00055e-06
 Reference value :  1.00093e-06
 Reference value :  1.00151e-06
 Reference value :  1.00204e-06
 Reference value :  1.00261e-06
 Reference value :  1.00329e-06
 Reference value :  1.00407e-06
 Reference value :  1.00484e-06
 Reference value :  1.00553e-06
 Reference value :  1.00624e-06
 Reference value :  1.00696e-06
 Reference value :  1.00774e-06
 Reference value :  1.00853e-06
 Reference value :  1.00963e-06
 Reference value :  1.01103e-06
 Reference value :  1.01321e-06
 Reference value :  1.01469e-06
 Reference value :  1.01633e-06
 Reference value :  1.01798e-06
 Reference value :  1.01944e-06
 Reference value :  1.02059e-06
 Reference value :  1.02182e-06
 Reference value :  1.02322e-06
 Reference value :  1.02478e-06
 Reference value :  1.02639e-06
 Reference value :  1.02900e-06
 Reference value :  1.03200e-06
 Reference value :  1.03801e-06
 Reference value :  1.04807e-06
 Reference value :  1.06489e-06
 Reference value :  1.09282e-06
 Reference value :  1.14798e-06
 Reference value :  1.21063e-06
 Reference value :  1.25010e-06
 Reference value :  1.25011e-06
 Reference value :  1.25013e-06
 Reference value :  1.25017e-06
 Reference value :  1.25020e-06
 Reference value :  1.25020e-06
 Reference value :  1.25020e-06
 Reference value :  1.25021e-06
 Reference value :  1.25021e-06
 Reference value :  1.25022e-06
 Reference value :  1.25025e-06
 Reference value :  1.25029e-06
 Reference value :  1.25039e-06
 Reference value :  1.25057e-06
 Reference value :  1.25090e-06
 Reference value :  1.25140e-06
 Reference value :  1.25202e-06
 Reference value :  1.25261e-06
 Reference value :  1.25328e-06
 Reference value :  1.25410e-06
 Reference value :  1.25470e-06
 Reference value :  1.25539e-06
 Reference value :  1.25628e-06
 Reference value :  1.25712e-06
 Reference value :  1.25824e-06
 Reference value :  1.26017e-06
 Reference value :  1.26209e-06
 Reference value :  1.26518e-06
 Reference value :  1.26905e-06
 Reference value :  1.27680e-06
 Reference value :  1.29229e-06
 Reference value :  1.31004e-06
 Reference value :  1.33971e-06
 Reference value :  1.36694e-06
 Reference value :  1.38747e-06
 Reference value :  1.39997e-06
 Reference value :  1.40973e-06
 Reference value :  1.42046e-06
 Reference value :  1.44192e-06
 Reference value :  1.46304e-06
 Reference value :  1.50000e-06
 Reference value :  1.50001e-06
 Reference value :  1.50003e-06
 Reference value :  1.50007e-06
 Reference value :  1.50010e-06
 Reference value :  1.50010e-06
 Reference value :  1.50011e-06
 Reference value :  1.50013e-06
 Reference value :  1.50016e-06
 Reference value :  1.50023e-06
 Reference value :  1.50036e-06
 Reference value :  1.50054e-06
 Reference value :  1.50089e-06
 Reference value :  1.50139e-06
 Reference value :  1.50190e-06
 Reference value :  1.50244e-06
 Reference value :  1.50310e-06
 Reference value :  1.50375e-06
 Reference value :  1.50449e-06
 Reference value :  1.50536e-06
 Reference value :  1.50619e-06
 Reference value :  1.50747e-06
 Reference value :  1.50882e-06
 Reference value :  1.51007e-06
 Reference value :  1.51136e-06
 Reference value :  1.51302e-06
 Reference value :  1.51460e-06
 Reference value :  1.51649e-06
 Reference value :  1.51835e-06
 Reference value :  1.52208e-06
 Reference value :  1.52916e-06
 Reference value :  1.54045e-06
 Reference value :  1.56302e-06
 Reference value :  1.60817e-06
 Reference value :  1.69847e-06
 Reference value :  1.75010e-06
 Reference value :  1.75011e-06
 Reference value :  1.75013e-06
 Reference value :  1.75017e-06
 Reference value :  1.75020e-06
 Reference value :  1.75020e-06
 Reference value :  1.75020e-06
 Reference value :  1.75021e-06
 Reference value :  1.75021e-06
 Reference value :  1.75022e-06
 Reference value :  1.75025e-06
 Reference value :  1.75029e-06
 Reference value :  1.75039e-06
 Reference value :  1.75058e-06
 Reference value :  1.75091e-06
 Reference value :  1.75141e-06
 Reference value :  1.75204e-06
 Reference value :  1.75262e-06
 Reference value :  1.75330e-06
 Reference value :  1.75414e-06
 Reference value :  1.75475e-06
 Reference value :  1.75545e-06
 Reference value :  1.75613e-06
 Reference value :  1.75686e-06
 Reference value :  1.75781e-06
 Reference value :  1.75884e-06
 Reference value :  1.76089e-06
 Reference value :  1.76307e-06
 Reference value :  1.76681e-06
 Reference value :  1.77160e-06
 Reference value :  1.78117e-06
 Reference value :  1.80032e-06
 Reference value :  1.83861e-06
 Reference value :  1.91519e-06
 Reference value :  2.00000e-06
 Reference value :  2.00001e-06
 Reference value :  2.00003e-06
 Reference value :  2.00007e-06
 Reference value :  2.00010e-06
 Reference value :  2.00010e-06
 Reference value :  2.00011e-06
 Reference value :  2.00013e-06
 Reference value :  2.00016e-06
 Reference value :  2.00023e-06
 Reference value :  2.00036e-06
 Reference value :  2.00054e-06
 Reference value :  2.00089e-06
 Reference value :  2.00139e-06
 Reference value :  2.00190e-06
 Reference value :  2.00244e-06
 Reference value :  2.00310e-06
 Reference value :  2.00375e-06
 Reference value :  2.00453e-06
 Reference value :  2.00519e-06
 Reference value :  2.00590e-06
 Reference value :  2.00674e-06
 Reference value :  2.00748e-06
 Reference value :  2.00827e-06
 Reference value :  2.00933e-06
 Reference value :  2.01037e-06
 Reference value :  2.01228e-06
 Reference value :  2.01468e-06
 Reference value :  2.01664e-06
 Reference value :  2.01870e-06
 Reference value :  2.02020e-06
 Reference value :  2.02160e-06
 Reference value :  2.02284e-06
 Reference value :  2.02423e-06
 Reference value :  2.02576e-06
 Reference value :  2.02804e-06
 Reference value :  2.03018e-06
 Reference value :  2.03425e-06
 Reference value :  2.03884e-06
 Reference value :  2.04320e-06
 Reference value :  2.04683e-06
 Reference value :  2.05112e-06
 Reference value :  2.05519e-06
 Reference value :  2.05904e-06
 Reference value :  2.06222e-06
 Reference value :  2.06572e-06
 Reference value :  2.07024e-06
 Reference value :  2.07625e-06
 Reference value :  2.08385e-06
 Reference value :  2.09140e-06
 Reference value :  2.09893e-06
 Reference value :  2.10738e-06
 Reference value :  2.12259e-06
 Reference value :  2.14429e-06
 Reference value :  2.18294e-06
 Reference value :  2.25010e-06
 Reference value :  2.25011e-06
 Reference value :  2.25013e-06
 Reference value :  2.25017e-06
 Reference value :  2.25020e-06
 Reference value :  2.25020e-06
 Reference value :  2.25020e-06
 Reference value :  2.25021e-06
 Reference value :  2.25021e-06
 Reference value :  2.25022e-06
 Reference value :  2.25025e-06
 Reference value :  2.25029e-06
 Reference value :  2.25039e-06
 Reference value :  2.25058e-06
 Reference value :  2.25091e-06
 Reference value :  2.25140e-06
 Reference value :  2.25204e-06
 Reference value :  2.25262e-06
 Reference value :  2.25330e-06
 Reference value :  2.25415e-06
 Reference value :  2.25474e-06
 Reference value :  2.25542e-06
 Reference value :  2.25623e-06
 Reference value :  2.25722e-06
 Reference value :  2.25819e-06
 Reference value :  2.26013e-06
 Reference value :  2.26204e-06
 Reference value :  2.26516e-06
 Reference value :  2.26899e-06
 Reference value :  2.27664e-06
 Reference value :  2.29196e-06
 Reference value :  2.32259e-06
 Reference value :  2.38385e-06
 Reference value :  2.48020e-06
 Reference value :  2.50000e-06
 Reference value :  2.50001e-06
 Reference value :  2.50003e-06
 Reference value :  2.50007e-06
 Reference value :  2.50010e-06
 Reference value :  2.50010e-06
 Reference value :  2.50011e-06
 Reference value :  2.50013e-06
 Reference value :  2.50016e-06
 Reference value :  2.50023e-06
 Reference value :  2.50036e-06
 Reference value :  2.50054e-06
 Reference value :  2.50089e-06
 Reference value :  2.50139e-06
 Reference value :  2.50190e-06
 Reference value :  2.50240e-06
 Reference value :  2.50303e-06
 Reference value :  2.50367e-06
 Reference value :  2.50454e-06
 Reference value :  2.50535e-06
 Reference value :  2.50628e-06
 Reference value :  2.50760e-06
 Reference value :  2.50904e-06
 Reference value :  2.51044e-06
 Reference value :  2.51186e-06
 Reference value :  2.51315e-06
 Reference value :  2.51457e-06
 Reference value :  2.51596e-06
 Reference value :  2.51760e-06
 Reference value :  2.52088e-06
 Reference value :  2.52589e-06
 Reference value :  2.53590e-06
 Reference value :  2.55593e-06
 Reference value :  2.59599e-06
 Reference value :  2.67610e-06
 Reference value :  2.75010e-06
 Reference value :  2.75011e-06
 Reference value :  2.75013e-06
 Reference value :  2.75017e-06
 Reference value :  2.75020e-06
 Reference value :  2.75020e-06
 Reference value :  2.75020e-06
 Reference value :  2.75021e-06
 Reference value :  2.75021e-06
 Reference value :  2.75022e-06
 Reference value :  2.75025e-06
 Reference value :  2.75029e-06
 Reference value :  2.75039e-06
 Reference value :  2.75058e-06
 Reference value :  2.75091e-06
 Reference value :  2.75140e-06
 Reference value :  2.75198e-06
 Reference value :  2.75258e-06
 Reference value :  2.75323e-06
 Reference value :  2.75407e-06
 Reference value :  2.75468e-06
 Reference value :  2.75540e-06
 Reference value :  2.75605e-06
 Reference value :  2.75677e-06
 Reference value :  2.75767e-06
 Reference value :  2.75866e-06
 Reference value :  2.75968e-06
 Reference value :  2.76118e-06
 Reference value :  2.76283e-06
 Reference value :  2.76511e-06
 Reference value :  2.76792e-06
 Reference value :  2.77213e-06
 Reference value :  2.78054e-06
 Reference value :  2.79634e-06
 Reference value :  2.82794e-06
 Reference value :  2.89112e-06
 Reference value :  3.00000e-06
 Reference value :  3.00001e-06
 Reference value :  3.00003e-06
 Reference value :  3.00007e-06
 Reference value :  3.00010e-06
 Reference value :  3.00010e-06
 Reference value :  3.00011e-06
 Reference value :  3.00013e-06
 Reference value :  3.00016e-06
 Reference value :  3.00023e-06
 Reference value :  3.00036e-06
 Reference value :  3.00054e-06
 Reference value :  3.00089e-06
 Reference value :  3.00139e-06
 Reference value :  3.00190e-06
 Reference value :  3.00243e-06
 Reference value :  3.00309e-06
 Reference value :  3.00375e-06
 Reference value :  3.00452e-06
 Reference value :  3.00515e-06
 Reference value :  3.00585e-06
 Reference value :  3.00654e-06
 Reference value :  3.00723e-06
 Reference value :  3.00797e-06
 Reference value :  3.00889e-06
 Reference value :  3.00988e-06
 Reference value :  3.01155e-06
 Reference value :  3.01316e-06
 Reference value :  3.01461e-06
 Reference value :  3.01613e-06
 Reference value :  3.01769e-06
 Reference value :  3.01890e-06
 Reference value :  3.02007e-06
 Reference value :  3.02152e-06
 Reference value :  3.02289e-06
 Reference value :  3.02421e-06
 Reference value :  3.02588e-06
 Reference value :  3.02810e-06
 Reference value :  3.03039e-06
 Reference value :  3.03448e-06
 Reference value :  3.04025e-06
 Reference value :  3.04958e-06
 Reference value :  3.06524e-06
 Reference value :  3.08879e-06
 Reference value :  3.13589e-06
 Reference value :  3.18083e-06
 Reference value :  3.21350e-06
 Reference value :  3.25010e-06
 Reference value :  3.25011e-06
 Reference value :  3.25013e-06
 Reference value :  3.25017e-06
 Reference value :  3.25020e-06
 Reference value :  3.25020e-06
 Reference value :  3.25020e-06
 Reference value :  3.25021e-06
 Reference value :  3.25021e-06
 Reference value :  3.25022e-06
 Reference value :  3.25025e-06
 Reference value :  3.25029e-06
 Reference value :  3.25039e-06
 Reference value :  3.25058e-06
 Reference value :  3.25091e-06
 Reference value :  3.25140e-06
 Reference value :  3.25198e-06
 Reference value :  3.25258e-06
 Reference value :  3.25323e-06
 Reference value :  3.25406e-06
 Reference value :  3.25467e-06
 Reference value :  3.25538e-06
 Reference value :  3.25617e-06
 Reference value :  3.25699e-06
 Reference value :  3.25810e-06
 Reference value :  3.25979e-06
 Reference value :  3.26175e-06
 Reference value :  3.26451e-06
 Reference value :  3.26837e-06
 Reference value :  3.27611e-06
 Reference value :  3.29157e-06
 Reference value :  3.32251e-06
 Reference value :  3.38438e-06
 Reference value :  3.50000e-06
 Reference value :  3.50001e-06
 Reference value :  3.50003e-06
 Reference value :  3.50007e-06
 Reference value :  3.50010e-06
 Reference value :  3.50010e-06
 Reference value :  3.50011e-06
 Reference value :  3.50013e-06
 Reference value :  3.50016e-06
 Reference value :  3.50023e-06
 Reference value :  3.50037e-06
 Reference value :  3.50054e-06
 Reference value :  3.50090e-06
 Reference value :  3.50140e-06
 Reference value :  3.50191e-06
 Reference value :  3.50242e-06
 Reference value :  3.50304e-06
 Reference value :  3.50370e-06
 Reference value :  3.50456e-06
 Reference value :  3.50535e-06
 Reference value :  3.50629e-06
 Reference value :  3.50743e-06
 Reference value :  3.50872e-06
 Reference value :  3.50987e-06
 Reference value :  3.51106e-06
 Reference value :  3.51250e-06
 Reference value :  3.51408e-06
 Reference value :  3.51569e-06
 Reference value :  3.51758e-06
 Reference value :  3.52103e-06
 Reference value :  3.52604e-06
 Reference value :  3.53574e-06
 Reference value :  3.55407e-06
 Reference value :  3.58801e-06
 Reference value :  3.65588e-06
 Reference value :  3.75010e-06
 Reference value :  3.75011e-06
 Reference value :  3.75013e-06
 Reference value :  3.75017e-06
 Reference value :  3.75020e-06
 Reference value :  3.75020e-06
 Reference value :  3.75020e-06
 Reference value :  3.75021e-06
 Reference value :  3.75021e-06
 Reference value :  3.75022e-06
 Reference value :  3.75025e-06
 Reference value :  3.75029e-06
 Reference value :  3.75039e-06
 Reference value :  3.75058e-06
 Reference value :  3.75091e-06
 Reference value :  3.75140e-06
 Reference value :  3.75198e-06
 Reference value :  3.75258e-06
 Reference value :  3.75322e-06
 Reference value :  3.75407e-06
 Reference value :  3.75469e-06
 Reference value :  3.75540e-06
 Reference value :  3.75605e-06
 Reference value :  3.75678e-06
 Reference value :  3.75767e-06
 Reference value :  3.75867e-06
 Reference value :  3.75970e-06
 Reference value :  3.76119e-06
 Reference value :  3.76286e-06
 Reference value :  3.76514e-06
 Reference value :  3.76798e-06
 Reference value :  3.77220e-06
 Reference value :  3.78066e-06
 Reference value :  3.79719e-06
 Reference value :  3.83024e-06
 Reference value :  3.89635e-06
 Reference value :  4.00000e-06
 Reference value :  4.00001e-06
 Reference value :  4.00003e-06
 Reference value :  4.00007e-06
 Reference value :  4.00010e-06
 Reference value :  4.00010e-06
 Reference value :  4.00011e-06
 Reference value :  4.00013e-06
 Reference value :  4.00016e-06
 Reference value :  4.00023e-06
 Reference value :  4.00036e-06
 Reference value :  4.00054e-06
 Reference value :  4.00089e-06
 Reference value :  4.00139e-06
 Reference value :  4.00190e-06
 Reference value :  4.00243e-06
 Reference value :  4.00309e-06
 Reference value :  4.00375e-06
 Reference value :  4.00452e-06
 Reference value :  4.00515e-06
 Reference value :  4.00584e-06
 Reference value :  4.00653e-06
 Reference value :  4.00720e-06
 Reference value :  4.00793e-06
 Reference value :  4.00888e-06
 Reference value :  4.00986e-06
 Reference value :  4.01133e-06
 Reference value :  4.01253e-06
 Reference value :  4.01383e-06
 Reference value :  4.01514e-06
 Reference value :  4.01658e-06
 Reference value :  4.01797e-06
 Reference value :  4.01900e-06
 Reference value :  4.02004e-06
 Reference value :  4.02126e-06
 Reference value :  4.02242e-06
 Reference value :  4.02363e-06
 Reference value :  4.02504e-06
 Reference value :  4.02698e-06
 Reference value :  4.02909e-06
 Reference value :  4.03258e-06
 Reference value :  4.03847e-06
 Reference value :  4.04708e-06
 Reference value :  4.06252e-06
 Reference value :  4.08673e-06
 Reference value :  4.10595e-06
 Reference value :  4.12636e-06
 Reference value :  4.13966e-06
 Reference value :  4.15491e-06
 Reference value :  4.17903e-06
 Reference value :  4.20115e-06
 Reference value :  4.24538e-06
 Reference value :  4.25010e-06
 Reference value :  4.25011e-06
 Reference value :  4.25013e-06
 Reference value :  4.25017e-06
 Reference value :  4.25020e-06
 Reference value :  4.25020e-06
 Reference value :  4.25020e-06
 Reference value :  4.25021e-06
 Reference value :  4.25021e-06
 Reference value :  4.25022e-06
 Reference value :  4.25025e-06
 Reference value :  4.25029e-06
 Reference value :  4.25039e-06
 Reference value :  4.25057e-06
 Reference value :  4.25090e-06
 Reference value :  4.25139e-06
 Reference value :  4.25202e-06
 Reference value :  4.25260e-06
 Reference value :  4.25328e-06
 Reference value :  4.25412e-06
 Reference value :  4.25472e-06
 Reference value :  4.25542e-06
 Reference value :  4.25629e-06
 Reference value :  4.25717e-06
 Reference value :  4.25824e-06
 Reference value :  4.26011e-06
 Reference value :  4.26204e-06
 Reference value :  4.26511e-06
 Reference value :  4.26898e-06
 Reference value :  4.27671e-06
 Reference value :  4.29218e-06
 Reference value :  4.32313e-06
 Reference value :  4.38501e-06
 Reference value :  4.50000e-06
 Reference value :  4.50001e-06
 Reference value :  4.50003e-06
 Reference value :  4.50007e-06
 Reference value :  4.50010e-06
 Reference value :  4.50010e-06
 Reference value :  4.50011e-06
 Reference value :  4.50013e-06
 Reference value :  4.50016e-06
 Reference value :  4.50023e-06
 Reference value :  4.50037e-06
 Reference value :  4.50054e-06
 Reference value :  4.50090e-06
 Reference value :  4.50139e-06
 Reference value :  4.50191e-06
 Reference value :  4.50242e-06
 Reference value :  4.50304e-06
 Reference value :  4.50369e-06
 Reference value :  4.50456e-06
 Reference value :  4.50534e-06
 Reference value :  4.50628e-06
 Reference value :  4.50743e-06
 Reference value :  4.50870e-06
 Reference value :  4.50990e-06
 Reference value :  4.51112e-06
 Reference value :  4.51229e-06
 Reference value :  4.51361e-06
 Reference value :  4.51493e-06
 Reference value :  4.51644e-06
 Reference value :  4.51946e-06
 Reference value :  4.52550e-06
 Reference value :  4.53608e-06
 Reference value :  4.55722e-06
 Reference value :  4.59951e-06
 Reference value :  4.68409e-06
 Reference value :  4.75010e-06
 Reference value :  4.75011e-06
 Reference value :  4.75013e-06
 Reference value :  4.75017e-06
 Reference value :  4.75020e-06
 Reference value :  4.75020e-06
 Reference value :  4.75020e-06
 Reference value :  4.75021e-06
 Reference value :  4.75021e-06
 Reference value :  4.75022e-06
 Reference value :  4.75025e-06
 Reference value :  4.75029e-06
 Reference value :  4.75039e-06
 Reference value :  4.75058e-06
 Reference value :  4.75091e-06
 Reference value :  4.75140e-06
 Reference value :  4.75204e-06
 Reference value :  4.75261e-06
 Reference value :  4.75330e-06
 Reference value :  4.75415e-06
 Reference value :  4.75476e-06
 Reference value :  4.75546e-06
 Reference value :  4.75615e-06
 Reference value :  4.75689e-06
 Reference value :  4.75786e-06
 Reference value :  4.75891e-06
 Reference value :  4.76015e-06
 Reference value :  4.76155e-06
 Reference value :  4.76353e-06
 Reference value :  4.76561e-06
 Reference value :  4.76918e-06
 Reference value :  4.77385e-06
 Reference value :  4.78319e-06
 Reference value :  4.80186e-06
 Reference value :  4.83921e-06
 Reference value :  4.91390e-06
 Reference value :  5.00000e-06
 Reference value :  5.00001e-06
 Reference value :  5.00003e-06
 Reference value :  5.00007e-06
 Reference value :  5.00010e-06
 Reference value :  5.00010e-06
 Reference value :  5.00011e-06
 Reference value :  5.00013e-06
 Reference value :  5.00016e-06
 Reference value :  5.00023e-06
 Reference value :  5.00036e-06
 Reference value :  5.00054e-06
 Reference value :  5.00089e-06
 Reference value :  5.00138e-06
 Reference value :  5.00189e-06
 Reference value :  5.00243e-06
 Reference value :  5.00309e-06
 Reference value :  5.00374e-06
 Reference value :  5.00451e-06
 Reference value :  5.00514e-06
 Reference value :  5.00584e-06
 Reference value :  5.00652e-06
 Reference value :  5.00720e-06
 Reference value :  5.00792e-06
 Reference value :  5.00898e-06
 Reference value :  5.00994e-06
 Reference value :  5.01179e-06
 Reference value :  5.01294e-06
 Reference value :  5.01429e-06
 Reference value :  5.01560e-06
 Reference value :  5.01715e-06
 Reference value :  5.01864e-06
 Reference value :  5.02002e-06
 Reference value :  5.02153e-06
 Reference value :  5.02287e-06
 Reference value :  5.02427e-06
 Reference value :  5.02593e-06
 Reference value :  5.02807e-06
 Reference value :  5.03037e-06
 Reference value :  5.03427e-06
 Reference value :  5.03979e-06
 Reference value :  5.04865e-06
 Reference value :  5.06009e-06
 Reference value :  5.07043e-06
 Reference value :  5.07923e-06
 Reference value :  5.09008e-06
 Reference value :  5.10039e-06
 Reference value :  5.11059e-06
 Reference value :  5.12206e-06
 Reference value :  5.13460e-06
 Reference value :  5.14776e-06
 Reference value :  5.16609e-06
 Reference value :  5.19831e-06
 Reference value :  5.24239e-06
 Reference value :  5.25010e-06
 Reference value :  5.25011e-06
 Reference value :  5.25013e-06
 Reference value :  5.25017e-06
 Reference value :  5.25020e-06
 Reference value :  5.25020e-06
 Reference value :  5.25020e-06
 Reference value :  5.25021e-06
 Reference value :  5.25021e-06
 Reference value :  5.25022e-06
 Reference value :  5.25025e-06
 Reference value :  5.25029e-06
 Reference value :  5.25039e-06
 Reference value :  5.25057e-06
 Reference value :  5.25090e-06
 Reference value :  5.25139e-06
 Reference value :  5.25201e-06
 Reference value :  5.25260e-06
 Reference value :  5.25328e-06
 Reference value :  5.25413e-06
 Reference value :  5.25473e-06
 Reference value :  5.25543e-06
 Reference value :  5.25631e-06
 Reference value :  5.25721e-06
 Reference value :  5.25827e-06
 Reference value :  5.26016e-06
 Reference value :  5.26209e-06
 Reference value :  5.26521e-06
 Reference value :  5.26910e-06
 Reference value :  5.27688e-06
 Reference value :  5.29244e-06
 Reference value :  5.32356e-06
 Reference value :  5.38579e-06
 Reference value :  5.50000e-06
 Reference value :  5.50001e-06
 Reference value :  5.50003e-06
 Reference value :  5.50007e-06
 Reference value :  5.50010e-06
 Reference value :  5.50010e-06
 Reference value :  5.50011e-06
 Reference value :  5.50013e-06
 Reference value :  5.50016e-06
 Reference value :  5.50023e-06
 Reference value :  5.50037e-06
 Reference value :  5.50054e-06
 Reference value :  5.50090e-06
 Reference value :  5.50140e-06
 Reference value :  5.50191e-06
 Reference value :  5.50242e-06
 Reference value :  5.50304e-06
 Reference value :  5.50370e-06
 Reference value :  5.50456e-06
 Reference value :  5.50538e-06
 Reference value :  5.50630e-06
 Reference value :  5.50761e-06
 Reference value :  5.50882e-06
 Reference value :  5.51017e-06
 Reference value :  5.51150e-06
 Reference value :  5.51282e-06
 Reference value :  5.51418e-06
 Reference value :  5.51572e-06
 Reference value :  5.51745e-06
 Reference value :  5.52056e-06
 Reference value :  5.52510e-06
 Reference value :  5.53374e-06
 Reference value :  5.54977e-06
 Reference value :  5.57947e-06
 Reference value :  5.63842e-06
 Reference value :  5.75010e-06
 Reference value :  5.75011e-06
 Reference value :  5.75013e-06
 Reference value :  5.75017e-06
 Reference value :  5.75020e-06
 Reference value :  5.75020e-06
 Reference value :  5.75020e-06
 Reference value :  5.75021e-06
 Reference value :  5.75021e-06
 Reference value :  5.75022e-06
 Reference value :  5.75025e-06
 Reference value :  5.75029e-06
 Reference value :  5.75039e-06
 Reference value :  5.75058e-06
 Reference value :  5.75091e-06
 Reference value :  5.75141e-06
 Reference value :  5.75204e-06
 Reference value :  5.75261e-06
 Reference value :  5.75330e-06
 Reference value :  5.75414e-06
 Reference value :  5.75475e-06
 Reference value :  5.75545e-06
 Reference value :  5.75614e-06
 Reference value :  5.75686e-06
 Reference value :  5.75783e-06
 Reference value :  5.75887e-06
 Reference value :  5.76005e-06
 Reference value :  5.76147e-06
 Reference value :  5.76355e-06
 Reference value :  5.76559e-06
 Reference value :  5.76916e-06
 Reference value :  5.77366e-06
 Reference value :  5.78265e-06
 Reference value :  5.80063e-06
 Reference value :  5.83659e-06
 Reference value :  5.90852e-06
 Reference value :  6.00000e-06
 Reference value :  6.00001e-06
 Reference value :  6.00003e-06
 Reference value :  6.00007e-06
 Reference value :  6.00010e-06
 Reference value :  6.00010e-06
 Reference value :  6.00011e-06
 Reference value :  6.00013e-06
 Reference value :  6.00016e-06
 Reference value :  6.00023e-06
 Reference value :  6.00036e-06
 Reference value :  6.00054e-06
 Reference value :  6.00089e-06
 Reference value :  6.00139e-06
 Reference value :  6.00190e-06
 Reference value :  6.00243e-06
 Reference value :  6.00309e-06
 Reference value :  6.00375e-06
 Reference value :  6.00452e-06
 Reference value :  6.00515e-06
 Reference value :  6.00584e-06
 Reference value :  6.00654e-06
 Reference value :  6.00726e-06
 Reference value :  6.00801e-06
 Reference value :  6.00908e-06
 Reference value :  6.01014e-06
 Reference value :  6.01205e-06
 Reference value :  6.01326e-06
 Reference value :  6.01466e-06
 Reference value :  6.01601e-06
 Reference value :  6.01754e-06
 Reference value :  6.01894e-06
 Reference value :  6.02041e-06
 Reference value :  6.02185e-06
 Reference value :  6.02316e-06
 Reference value :  6.02461e-06
 Reference value :  6.02618e-06
 Reference value :  6.02833e-06
 Reference value :  6.03069e-06
 Reference value :  6.03503e-06
 Reference value :  6.04111e-06
 Reference value :  6.05031e-06
 Reference value :  6.05914e-06
 Reference value :  6.07226e-06
 Reference value :  6.08887e-06
 Reference value :  6.10453e-06
 Reference value :  6.11638e-06
 Reference value :  6.12971e-06
 Reference value :  6.14295e-06
 Reference value :  6.15728e-06
 Reference value :  6.18594e-06
 Reference value :  6.24326e-06
 Reference value :  6.25010e-06
 Reference value :  6.25011e-06
 Reference value :  6.25013e-06
 Reference value :  6.25017e-06
 Reference value :  6.25020e-06
 Reference value :  6.25020e-06
 Reference value :  6.25020e-06
 Reference value :  6.25021e-06
 Reference value :  6.25021e-06
 Reference value :  6.25022e-06
 Reference value :  6.25025e-06
 Reference value :  6.25029e-06
 Reference value :  6.25039e-06
 Reference value :  6.25057e-06
 Reference value :  6.25090e-06
 Reference value :  6.25139e-06
 Reference value :  6.25202e-06
 Reference value :  6.25260e-06
 Reference value :  6.25328e-06
 Reference value :  6.25412e-06
 Reference value :  6.25472e-06
 Reference value :  6.25541e-06
 Reference value :  6.25629e-06
 Reference value :  6.25719e-06
 Reference value :  6.25825e-06
 Reference value :  6.26013e-06
 Reference value :  6.26205e-06
 Reference value :  6.26515e-06
 Reference value :  6.26902e-06
 Reference value :  6.27677e-06
 Reference value :  6.28736e-06
 Reference value :  6.30064e-06
 Reference value :  6.31976e-06
 Reference value :  6.34599e-06
 Reference value :  6.36284e-06
 Reference value :  6.38147e-06
 Reference value :  6.40537e-06
 Reference value :  6.43116e-06
 Reference value :  6.47541e-06
 Reference value :  6.50000e-06
 Reference value :  6.50001e-06
 Reference value :  6.50003e-06
 Reference value :  6.50007e-06
 Reference value :  6.50010e-06
 Reference value :  6.50010e-06
 Reference value :  6.50011e-06
 Reference value :  6.50013e-06
 Reference value :  6.50016e-06
 Reference value :  6.50023e-06
 Reference value :  6.50037e-06
 Reference value :  6.50054e-06
 Reference value :  6.50090e-06
 Reference value :  6.50140e-06
 Reference value :  6.50191e-06
 Reference value :  6.50242e-06
 Reference value :  6.50305e-06
 Reference value :  6.50370e-06
 Reference value :  6.50457e-06
 Reference value :  6.50536e-06
 Reference value :  6.50629e-06
 Reference value :  6.50743e-06
 Reference value :  6.50877e-06
 Reference value :  6.50994e-06
 Reference value :  6.51115e-06
 Reference value :  6.51228e-06
 Reference value :  6.51358e-06
 Reference value :  6.51489e-06
 Reference value :  6.51638e-06
 Reference value :  6.51938e-06
 Reference value :  6.52537e-06
 Reference value :  6.53596e-06
 Reference value :  6.55715e-06
 Reference value :  6.59953e-06
 Reference value :  6.68429e-06
 Reference value :  6.75010e-06
 Reference value :  6.75011e-06
 Reference value :  6.75013e-06
 Reference value :  6.75017e-06
 Reference value :  6.75020e-06
 Reference value :  6.75020e-06
 Reference value :  6.75020e-06
 Reference value :  6.75021e-06
 Reference value :  6.75021e-06
 Reference value :  6.75022e-06
 Reference value :  6.75025e-06
 Reference value :  6.75029e-06
 Reference value :  6.75039e-06
 Reference value :  6.75058e-06
 Reference value :  6.75091e-06
 Reference value :  6.75141e-06
 Reference value :  6.75204e-06
 Reference value :  6.75262e-06
 Reference value :  6.75330e-06
 Reference value :  6.75415e-06
 Reference value :  6.75476e-06
 Reference value :  6.75546e-06
 Reference value :  6.75615e-06
 Reference value :  6.75688e-06
 Reference value :  6.75785e-06
 Reference value :  6.75891e-06
 Reference value :  6.76005e-06
 Reference value :  6.76149e-06
 Reference value :  6.76356e-06
 Reference value :  6.76559e-06
 Reference value :  6.76917e-06
 Reference value :  6.77368e-06
 Reference value :  6.78269e-06
 Reference value :  6.80072e-06
 Reference value :  6.83677e-06
 Reference value :  6.90888e-06
 Reference value :  7.00000e-06
 Reference value :  7.00001e-06
 Reference value :  7.00003e-06
 Reference value :  7.00007e-06
 Reference value :  7.00010e-06
 Reference value :  7.00010e-06
 Reference value :  7.00011e-06
 Reference value :  7.00013e-06
 Reference value :  7.00016e-06
 Reference value :  7.00023e-06
 Reference value :  7.00036e-06
 Reference value :  7.00054e-06
 Reference value :  7.00089e-06
 Reference value :  7.00139e-06
 Reference value :  7.00190e-06
 Reference value :  7.00243e-06
 Reference value :  7.00310e-06
 Reference value :  7.00375e-06
 Reference value :  7.00452e-06
 Reference value :  7.00515e-06
 Reference value :  7.00585e-06
 Reference value :  7.00653e-06
 Reference value :  7.00722e-06
 Reference value :  7.00795e-06
 Reference value :  7.00900e-06
 Reference value :  7.01001e-06
 Reference value :  7.01152e-06
 Reference value :  7.01300e-06
 Reference value :  7.01436e-06
 Reference value :  7.01585e-06
 Reference value :  7.01745e-06
 Reference value :  7.01928e-06
 Reference value :  7.02050e-06
 Reference value :  7.02182e-06
 Reference value :  7.02316e-06
 Reference value :  7.02443e-06
 Reference value :  7.02602e-06
 Reference value :  7.02828e-06
 Reference value :  7.02977e-06
 Reference value :  7.03147e-06
 Reference value :  7.03342e-06
 Reference value :  7.03551e-06
 Reference value :  7.03899e-06
 Reference value :  7.04274e-06
 Reference value :  7.04843e-06
 Reference value :  7.05980e-06
 Reference value :  7.07841e-06
 Reference value :  7.11241e-06
 Reference value :  7.17329e-06
 Reference value :  7.25010e-06
 Reference value :  7.25011e-06
 Reference value :  7.25013e-06
 Reference value :  7.25017e-06
 Reference value :  7.25020e-06
 Reference value :  7.25020e-06
 Reference value :  7.25020e-06
 Reference value :  7.25021e-06
 Reference value :  7.25021e-06
 Reference value :  7.25022e-06
 Reference value :  7.25025e-06
 Reference value :  7.25029e-06
 Reference value :  7.25039e-06
 Reference value :  7.25058e-06
 Reference value :  7.25092e-06
 Reference value :  7.25141e-06
 Reference value :  7.25198e-06
 Reference value :  7.25258e-06
 Reference value :  7.25322e-06
 Reference value :  7.25406e-06
 Reference value :  7.25467e-06
 Reference value :  7.25538e-06
 Reference value :  7.25619e-06
 Reference value :  7.25703e-06
 Reference value :  7.25813e-06
 Reference value :  7.25984e-06
 Reference value :  7.26179e-06
 Reference value :  7.26460e-06
 Reference value :  7.26847e-06
 Reference value :  7.27620e-06
 Reference value :  7.29168e-06
 Reference value :  7.32152e-06
 Reference value :  7.38121e-06
 Reference value :  7.50000e-06
 Reference value :  7.50001e-06
 Reference value :  7.50003e-06
 Reference value :  7.50007e-06
 Reference value :  7.50010e-06
 Reference value :  7.50010e-06
 Reference value :  7.50011e-06
 Reference value :  7.50013e-06
 Reference value :  7.50016e-06
 Reference value :  7.50023e-06
 Reference value :  7.50037e-06
 Reference value :  7.50054e-06
 Reference value :  7.50090e-06
 Reference value :  7.50142e-06
 Reference value :  7.50194e-06
 Reference value :  7.50250e-06
 Reference value :  7.50316e-06
 Reference value :  7.50386e-06
 Reference value :  7.50459e-06
 Reference value :  7.50541e-06
 Reference value :  7.50627e-06
 Reference value :  7.50744e-06
 Reference value :  7.50887e-06
 Reference value :  7.51013e-06
 Reference value :  7.51143e-06
 Reference value :  7.51260e-06
 Reference value :  7.51396e-06
 Reference value :  7.51529e-06
 Reference value :  7.51683e-06
 Reference value :  7.51991e-06
 Reference value :  7.52567e-06
 Reference value :  7.53661e-06
 Reference value :  7.55848e-06
 Reference value :  7.60222e-06
 Reference value :  7.68970e-06
 Reference value :  7.75010e-06
 Reference value :  7.75011e-06
 Reference value :  7.75013e-06
 Reference value :  7.75017e-06
 Reference value :  7.75020e-06
 Reference value :  7.75020e-06
 Reference value :  7.75020e-06
 Reference value :  7.75021e-06
 Reference value :  7.75021e-06
 Reference value :  7.75022e-06
 Reference value :  7.75025e-06
 Reference value :  7.75029e-06
 Reference value :  7.75039e-06
 Reference value :  7.75058e-06
 Reference value :  7.75092e-06
 Reference value :  7.75141e-06
 Reference value :  7.75198e-06
 Reference value :  7.75258e-06
 Reference value :  7.75322e-06
 Reference value :  7.75406e-06
 Reference value :  7.75467e-06
 Reference value :  7.75537e-06
 Reference value :  7.75602e-06
 Reference value :  7.75674e-06
 Reference value :  7.75764e-06
 Reference value :  7.75865e-06
 Reference value :  7.76066e-06
 Reference value :  7.76277e-06
 Reference value :  7.76636e-06
 Reference value :  7.77079e-06
 Reference value :  7.77965e-06
 Reference value :  7.79738e-06
 Reference value :  7.83284e-06
 Reference value :  7.90376e-06
 Reference value :  8.00000e-06
 Reference value :  8.00001e-06
 Reference value :  8.00003e-06
 Reference value :  8.00007e-06
 Reference value :  8.00010e-06
 Reference value :  8.00010e-06
 Reference value :  8.00011e-06
 Reference value :  8.00013e-06
 Reference value :  8.00016e-06
 Reference value :  8.00023e-06
 Reference value :  8.00036e-06
 Reference value :  8.00054e-06
 Reference value :  8.00090e-06
 Reference value :  8.00141e-06
 Reference value :  8.00193e-06
 Reference value :  8.00248e-06
 Reference value :  8.00314e-06
 Reference value :  8.00383e-06
 Reference value :  8.00463e-06
 Reference value :  8.00531e-06
 Reference value :  8.00603e-06
 Reference value :  8.00682e-06
 Reference value :  8.00759e-06
 Reference value :  8.00843e-06
 Reference value :  8.00958e-06
 Reference value :  8.01089e-06
 Reference value :  8.01303e-06
 Reference value :  8.01567e-06
 Reference value :  8.01766e-06
 Reference value :  8.01986e-06
 Reference value :  8.02201e-06
 Reference value :  8.02449e-06
 Reference value :  8.02834e-06
 Reference value :  8.03343e-06
 Reference value :  8.04218e-06
 Reference value :  8.05631e-06
 Reference value :  8.08023e-06
 Reference value :  8.12249e-06
 Reference value :  8.19490e-06
 Reference value :  8.25010e-06
 Reference value :  8.25011e-06
 Reference value :  8.25013e-06
 Reference value :  8.25017e-06
 Reference value :  8.25020e-06
 Reference value :  8.25020e-06
 Reference value :  8.25020e-06
 Reference value :  8.25021e-06
 Reference value :  8.25021e-06
 Reference value :  8.25022e-06
 Reference value :  8.25025e-06
 Reference value :  8.25029e-06
 Reference value :  8.25039e-06
 Reference value :  8.25058e-06
 Reference value :  8.25096e-06
 Reference value :  8.25143e-06
 Reference value :  8.25198e-06
 Reference value :  8.25258e-06
 Reference value :  8.25322e-06
 Reference value :  8.25405e-06
 Reference value :  8.25495e-06
 Reference value :  8.25612e-06
 Reference value :  8.25752e-06
 Reference value :  8.25885e-06
 Reference value :  8.26110e-06
 Reference value :  8.26350e-06
 Reference value :  8.26727e-06
 Reference value :  8.27288e-06
 Reference value :  8.28409e-06
 Reference value :  8.30652e-06
 Reference value :  8.35137e-06
 Reference value :  8.44107e-06
 Reference value :  8.50000e-06
 Reference value :  8.50000e-06
 Reference value :  8.50000e-06
 Reference value :  8.50000e-06
 Reference value :  8.50000e-06
 Reference value :  8.50000e-06
 Reference value :  8.50000e-06
 Reference value :  8.50000e-06
 Reference value :  8.50000e-06
 Reference value :  8.50001e-06
 Reference value :  8.50001e-06
 Reference value :  8.50002e-06
 Reference value :  8.50004e-06
 Reference value :  8.50008e-06
 Reference value :  8.50010e-06
 Reference value :  8.50010e-06
 Reference value :  8.50011e-06
 Reference value :  8.50012e-06
 Reference value :  8.50014e-06
 Reference value :  8.50018e-06
 Reference value :  8.50026e-06
 Reference value :  8.50043e-06
 Reference value :  8.50072e-06
 Reference value :  8.50121e-06
 Reference value :  8.50181e-06
 Reference value :  8.50247e-06
 Reference value :  8.50311e-06
 Reference value :  8.50379e-06
 Reference value :  8.50448e-06
 Reference value :  8.50521e-06
 Reference value :  8.50619e-06
 Reference value :  8.50721e-06
 Reference value :  8.50925e-06
 Reference value :  8.51054e-06
 Reference value :  8.51189e-06
 Reference value :  8.51348e-06
 Reference value :  8.51523e-06
 Reference value :  8.51762e-06
 Reference value :  8.52125e-06
 Reference value :  8.52564e-06
 Reference value :  8.53051e-06
 Reference value :  8.53387e-06
 Reference value :  8.53678e-06
 Reference value :  8.53947e-06
 Reference value :  8.54187e-06
 Reference value :  8.54378e-06
 Reference value :  8.54583e-06
 Reference value :  8.54789e-06
 Reference value :  8.54993e-06
 Reference value :  8.55260e-06
 Reference value :  8.55563e-06
 Reference value :  8.55892e-06
 Reference value :  8.56296e-06
 Reference value :  8.56682e-06
 Reference value :  8.57060e-06
 Reference value :  8.57474e-06
 Reference value :  8.57892e-06
 Reference value :  8.58616e-06
 Reference value :  8.59349e-06
 Reference value :  8.60005e-06
 Reference value :  8.60840e-06
 Reference value :  8.61746e-06
 Reference value :  8.63403e-06
 Reference value :  8.66067e-06
 Reference value :  8.68632e-06
 Reference value :  8.70700e-06
 Reference value :  8.71955e-06
 Reference value :  8.73246e-06
 Reference value :  8.74804e-06
 Reference value :  8.75010e-06
 Reference value :  8.75011e-06
 Reference value :  8.75013e-06
 Reference value :  8.75017e-06
 Reference value :  8.75020e-06
 Reference value :  8.75020e-06
 Reference value :  8.75020e-06
 Reference value :  8.75021e-06
 Reference value :  8.75021e-06
 Reference value :  8.75022e-06
 Reference value :  8.75025e-06
 Reference value :  8.75029e-06
 Reference value :  8.75039e-06
 Reference value :  8.75058e-06
 Reference value :  8.75095e-06
 Reference value :  8.75142e-06
 Reference value :  8.75198e-06
 Reference value :  8.75258e-06
 Reference value :  8.75323e-06
 Reference value :  8.75405e-06
 Reference value :  8.75469e-06
 Reference value :  8.75542e-06
 Reference value :  8.75622e-06
 Reference value :  8.75704e-06
 Reference value :  8.75811e-06
 Reference value :  8.75983e-06
 Reference value :  8.76174e-06
 Reference value :  8.76458e-06
 Reference value :  8.76840e-06
 Reference value :  8.77605e-06
 Reference value :  8.79133e-06
 Reference value :  8.82050e-06
 Reference value :  8.84920e-06
 Reference value :  8.87165e-06
 Reference value :  8.88358e-06
 Reference value :  8.89299e-06
 Reference value :  8.90207e-06
 Reference value :  8.91098e-06
 Reference value :  8.91887e-06
 Reference value :  8.92718e-06
 Reference value :  8.94285e-06
 Reference value :  8.96404e-06
 Reference value :  8.99696e-06
 Reference value :  9.00000e-06
 Reference value :  9.00001e-06
 Reference value :  9.00003e-06
 Reference value :  9.00007e-06
 Reference value :  9.00010e-06
 Reference value :  9.00010e-06
 Reference value :  9.00011e-06
 Reference value :  9.00013e-06
 Reference value :  9.00016e-06
 Reference value :  9.00023e-06
 Reference value :  9.00037e-06
 Reference value :  9.00055e-06
 Reference value :  9.00093e-06
 Reference value :  9.00151e-06
 Reference value :  9.00204e-06
 Reference value :  9.00262e-06
 Reference value :  9.00325e-06
 Reference value :  9.00396e-06
 Reference value :  9.00471e-06
 Reference value :  9.00548e-06
 Reference value :  9.00651e-06
 Reference value :  9.00752e-06
 Reference value :  9.00937e-06
 Reference value :  9.01232e-06
 Reference value :  9.01429e-06
 Reference value :  9.01648e-06
 Reference value :  9.01848e-06
 Reference value :  9.02102e-06
 Reference value :  9.02377e-06
 Reference value :  9.02840e-06
 Reference value :  9.03504e-06
 Reference value :  9.04598e-06
 Reference value :  9.06508e-06
 Reference value :  9.09675e-06
 Reference value :  9.15378e-06
 Reference value :  9.25010e-06
 Reference value :  9.25011e-06
 Reference value :  9.25013e-06
 Reference value :  9.25017e-06
 Reference value :  9.25020e-06
 Reference value :  9.25020e-06
 Reference value :  9.25020e-06
 Reference value :  9.25021e-06
 Reference value :  9.25021e-06
 Reference value :  9.25022e-06
 Reference value :  9.25025e-06
 Reference value :  9.25029e-06
 Reference value :  9.25039e-06
 Reference value :  9.25058e-06
 Reference value :  9.25095e-06
 Reference value :  9.25143e-06
 Reference value :  9.25199e-06
 Reference value :  9.25259e-06
 Reference value :  9.25325e-06
 Reference value :  9.25410e-06
 Reference value :  9.25472e-06
 Reference value :  9.25545e-06
 Reference value :  9.25612e-06
 Reference value :  9.25685e-06
 Reference value :  9.25776e-06
 Reference value :  9.25865e-06
 Reference value :  9.25958e-06
 Reference value :  9.26081e-06
 Reference value :  9.26211e-06
 Reference value :  9.26432e-06
 Reference value :  9.26661e-06
 Reference value :  9.27038e-06
 Reference value :  9.27570e-06
 Reference value :  9.28329e-06
 Reference value :  9.29505e-06
 Reference value :  9.31188e-06
 Reference value :  9.33751e-06
 Reference value :  9.38324e-06
 Reference value :  9.45863e-06
 Reference value :  9.50000e-06
 Reference value :  9.50001e-06
 Reference value :  9.50003e-06
 Reference value :  9.50007e-06
 Reference value :  9.50010e-06
 Reference value :  9.50010e-06
 Reference value :  9.50011e-06
 Reference value :  9.50013e-06
 Reference value :  9.50016e-06
 Reference value :  9.50023e-06
 Reference value :  9.50037e-06
 Reference value :  9.50055e-06
 Reference value :  9.50093e-06
 Reference value :  9.50151e-06
 Reference value :  9.50204e-06
 Reference value :  9.50261e-06
 Reference value :  9.50329e-06
 Reference value :  9.50408e-06
 Reference value :  9.50484e-06
 Reference value :  9.50553e-06
 Reference value :  9.50625e-06
 Reference value :  9.50696e-06
 Reference value :  9.50774e-06
 Reference value :  9.50853e-06
 Reference value :  9.50963e-06
 Reference value :  9.51104e-06
 Reference value :  9.51322e-06
 Reference value :  9.51470e-06
 Reference value :  9.51634e-06
 Reference value :  9.51799e-06
 Reference value :  9.51933e-06
 Reference value :  9.52039e-06
 Reference value :  9.52153e-06
 Reference value :  9.52285e-06
 Reference value :  9.52416e-06
 Reference value :  9.52560e-06
 Reference value :  9.52765e-06
 Reference value :  9.52991e-06
 Reference value :  9.53395e-06
 Reference value :  9.53988e-06
 Reference value :  9.54907e-06
 Reference value :  9.56432e-06
 Reference value :  9.59140e-06
 Reference value :  9.63487e-06
 Reference value :  9.70538e-06
 Reference value :  9.75010e-06
 Reference value :  9.75011e-06
 Reference value :  9.75013e-06
 Reference value :  9.75017e-06
 Reference value :  9.75020e-06
 Reference value :  9.75020e-06
 Reference value :  9.75020e-06
 Reference value :  9.75021e-06
 Reference value :  9.75021e-06
 Reference value :  9.75022e-06
 Reference value :  9.75025e-06
 Reference value :  9.75029e-06
 Reference value :  9.75039e-06
 Reference value :  9.75058e-06
 Reference value :  9.75091e-06
 Reference value :  9.75141e-06
 Reference value :  9.75204e-06
 Reference value :  9.75262e-06
 Reference value :  9.75330e-06
 Reference value :  9.75413e-06
 Reference value :  9.75472e-06
 Reference value :  9.75541e-06
 Reference value :  9.75628e-06
 Reference value :  9.75715e-06
 Reference value :  9.75822e-06
 Reference value :  9.76010e-06
 Reference value :  9.76201e-06
 Reference value :  9.76508e-06
 Reference value :  9.76894e-06
 Reference value :  9.77665e-06
 Reference value :  9.79207e-06
 Reference value :  9.80969e-06
 Reference value :  9.83432e-06
 Reference value :  9.85937e-06
 Reference value :  9.87969e-06
 Reference value :  9.88915e-06
 Reference value :  9.89810e-06
 Reference value :  9.90775e-06
 Reference value :  9.92186e-06
 Reference value :  9.93772e-06
 Reference value :  9.96130e-06
 Reference value :  9.99343e-06
 Reference value :  1.00000e-05
 Reference value :  1.00000e-05
 Reference value :  1.00000e-05
 Reference value :  1.00001e-05
 Reference value :  1.00001e-05
 Reference value :  1.00001e-05
 Reference value :  1.00001e-05
 Reference value :  1.00001e-05
 Reference value :  1.00002e-05
 Reference value :  1.00002e-05
 Reference value :  1.00004e-05
 Reference value :  1.00005e-05
 Reference value :  1.00009e-05
 Reference value :  1.00014e-05
 Reference value :  1.00019e-05
 Reference value :  1.00024e-05
 Reference value :  1.00031e-05
 Reference value :  1.00038e-05
 Reference value :  1.00045e-05
 Reference value :  1.00054e-05
 Reference value :  1.00062e-05
 Reference value :  1.00075e-05
 Reference value :  1.00088e-05
 Reference value :  1.00100e-05
 Reference value :  1.00113e-05
 Reference value :  1.00130e-05
 Reference value :  1.00146e-05
 Reference value :  1.00164e-05
 Reference value :  1.00183e-05
 Reference value :  1.00223e-05
 Reference value :  1.00282e-05
 Reference value :  1.00393e-05
 Reference value :  1.00614e-05
 Reference value :  1.01012e-05
 Reference value :  1.01808e-05
 Reference value :  1.02501e-05
 Reference value :  1.02501e-05
 Reference value :  1.02501e-05
 Reference value :  1.02502e-05
 Reference value :  1.02502e-05
 Reference value :  1.02502e-05
 Reference value :  1.02502e-05
 Reference value :  1.02502e-05
 Reference value :  1.02502e-05
 Reference value :  1.02502e-05
 Reference value :  1.02502e-05
 Reference value :  1.02503e-05
 Reference value :  1.02504e-05
 Reference value :  1.02506e-05
 Reference value :  1.02509e-05
 Reference value :  1.02514e-05
 Reference value :  1.02520e-05
 Reference value :  1.02526e-05
 Reference value :  1.02532e-05
 Reference value :  1.02541e-05
 Reference value :  1.02547e-05
 Reference value :  1.02554e-05
 Reference value :  1.02560e-05
 Reference value :  1.02568e-05
 Reference value :  1.02577e-05
 Reference value :  1.02586e-05
 Reference value :  1.02606e-05
 Reference value :  1.02627e-05
 Reference value :  1.02663e-05
 Reference value :  1.02706e-05
 Reference value :  1.02793e-05
 Reference value :  1.02967e-05
 Reference value :  1.03314e-05
 Reference value :  1.04010e-05
 Reference value :  1.05000e-05
 Reference value :  1.05000e-05
 Reference value :  1.05000e-05
 Reference value :  1.05001e-05
 Reference value :  1.05001e-05
 Reference value :  1.05001e-05
 Reference value :  1.05001e-05
 Reference value :  1.05001e-05
 Reference value :  1.05002e-05
 Reference value :  1.05002e-05
 Reference value :  1.05004e-05
 Reference value :  1.05005e-05
 Reference value :  1.05009e-05
 Reference value :  1.05014e-05
 Reference value :  1.05019e-05
 Reference value :  1.05024e-05
 Reference value :  1.05031e-05
 Reference value :  1.05038e-05
 Reference value :  1.05045e-05
 Reference value :  1.05052e-05
 Reference value :  1.05059e-05
 Reference value :  1.05067e-05
 Reference value :  1.05075e-05
 Reference value :  1.05083e-05
 Reference value :  1.05093e-05
 Reference value :  1.05104e-05
 Reference value :  1.05123e-05
 Reference value :  1.05147e-05
 Reference value :  1.05166e-05
 Reference value :  1.05187e-05
 Reference value :  1.05202e-05
 Reference value :  1.05216e-05
 Reference value :  1.05228e-05
 Reference value :  1.05242e-05
 Reference value :  1.05257e-05
 Reference value :  1.05280e-05
 Reference value :  1.05301e-05
 Reference value :  1.05342e-05
 Reference value :  1.05389e-05
 Reference value :  1.05435e-05
 Reference value :  1.05467e-05
 Reference value :  1.05510e-05
 Reference value :  1.05546e-05
 Reference value :  1.05584e-05
 Reference value :  1.05611e-05
 Reference value :  1.05643e-05
 Reference value :  1.05678e-05
 Reference value :  1.05716e-05
 Reference value :  1.05776e-05
 Reference value :  1.05846e-05
 Reference value :  1.05909e-05
 Reference value :  1.05987e-05
 Reference value :  1.06070e-05
 Reference value :  1.06232e-05
 Reference value :  1.06477e-05
 Reference value :  1.06864e-05
 Reference value :  1.07501e-05
 Reference value :  1.07501e-05
 Reference value :  1.07501e-05
 Reference value :  1.07502e-05
 Reference value :  1.07502e-05
 Reference value :  1.07502e-05
 Reference value :  1.07502e-05
 Reference value :  1.07502e-05
 Reference value :  1.07502e-05
 Reference value :  1.07502e-05
 Reference value :  1.07502e-05
 Reference value :  1.07503e-05
 Reference value :  1.07504e-05
 Reference value :  1.07506e-05
 Reference value :  1.07509e-05
 Reference value :  1.07514e-05
 Reference value :  1.07520e-05
 Reference value :  1.07526e-05
 Reference value :  1.07533e-05
 Reference value :  1.07541e-05
 Reference value :  1.07547e-05
 Reference value :  1.07554e-05
 Reference value :  1.07562e-05
 Reference value :  1.07572e-05
 Reference value :  1.07582e-05
 Reference value :  1.07602e-05
 Reference value :  1.07621e-05
 Reference value :  1.07652e-05
 Reference value :  1.07691e-05
 Reference value :  1.07767e-05
 Reference value :  1.07920e-05
 Reference value :  1.08225e-05
 Reference value :  1.08836e-05
 Reference value :  1.09821e-05
 Reference value :  1.10000e-05
 Reference value :  1.10000e-05
 Reference value :  1.10000e-05
 Reference value :  1.10001e-05
 Reference value :  1.10001e-05
 Reference value :  1.10001e-05
 Reference value :  1.10001e-05
 Reference value :  1.10001e-05
 Reference value :  1.10002e-05
 Reference value :  1.10002e-05
 Reference value :  1.10004e-05
 Reference value :  1.10005e-05
 Reference value :  1.10009e-05
 Reference value :  1.10014e-05
 Reference value :  1.10019e-05
 Reference value :  1.10024e-05
 Reference value :  1.10030e-05
 Reference value :  1.10037e-05
 Reference value :  1.10045e-05
 Reference value :  1.10053e-05
 Reference value :  1.10063e-05
 Reference value :  1.10076e-05
 Reference value :  1.10090e-05
 Reference value :  1.10104e-05
 Reference value :  1.10119e-05
 Reference value :  1.10132e-05
 Reference value :  1.10146e-05
 Reference value :  1.10160e-05
 Reference value :  1.10176e-05
 Reference value :  1.10209e-05
 Reference value :  1.10258e-05
 Reference value :  1.10357e-05
 Reference value :  1.10555e-05
 Reference value :  1.10950e-05
 Reference value :  1.11742e-05
 Reference value :  1.12501e-05
 Reference value :  1.12501e-05
 Reference value :  1.12501e-05
 Reference value :  1.12502e-05
 Reference value :  1.12502e-05
 Reference value :  1.12502e-05
 Reference value :  1.12502e-05
 Reference value :  1.12502e-05
 Reference value :  1.12502e-05
 Reference value :  1.12502e-05
 Reference value :  1.12502e-05
 Reference value :  1.12503e-05
 Reference value :  1.12504e-05
 Reference value :  1.12506e-05
 Reference value :  1.12509e-05
 Reference value :  1.12514e-05
 Reference value :  1.12520e-05
 Reference value :  1.12526e-05
 Reference value :  1.12532e-05
 Reference value :  1.12541e-05
 Reference value :  1.12547e-05
 Reference value :  1.12554e-05
 Reference value :  1.12561e-05
 Reference value :  1.12568e-05
 Reference value :  1.12577e-05
 Reference value :  1.12587e-05
 Reference value :  1.12597e-05
 Reference value :  1.12612e-05
 Reference value :  1.12628e-05
 Reference value :  1.12651e-05
 Reference value :  1.12679e-05
 Reference value :  1.12721e-05
 Reference value :  1.12805e-05
 Reference value :  1.12964e-05
 Reference value :  1.13280e-05
 Reference value :  1.13912e-05
 Reference value :  1.15000e-05
 Reference value :  1.15000e-05
 Reference value :  1.15000e-05
 Reference value :  1.15001e-05
 Reference value :  1.15001e-05
 Reference value :  1.15001e-05
 Reference value :  1.15001e-05
 Reference value :  1.15001e-05
 Reference value :  1.15002e-05
 Reference value :  1.15002e-05
 Reference value :  1.15004e-05
 Reference value :  1.15005e-05
 Reference value :  1.15009e-05
 Reference value :  1.15014e-05
 Reference value :  1.15019e-05
 Reference value :  1.15024e-05
 Reference value :  1.15031e-05
 Reference value :  1.15037e-05
 Reference value :  1.15045e-05
 Reference value :  1.15051e-05
 Reference value :  1.15058e-05
 Reference value :  1.15065e-05
 Reference value :  1.15072e-05
 Reference value :  1.15080e-05
 Reference value :  1.15089e-05
 Reference value :  1.15099e-05
 Reference value :  1.15116e-05
 Reference value :  1.15132e-05
 Reference value :  1.15146e-05
 Reference value :  1.15161e-05
 Reference value :  1.15177e-05
 Reference value :  1.15189e-05
 Reference value :  1.15201e-05
 Reference value :  1.15215e-05
 Reference value :  1.15229e-05
 Reference value :  1.15242e-05
 Reference value :  1.15259e-05
 Reference value :  1.15281e-05
 Reference value :  1.15304e-05
 Reference value :  1.15344e-05
 Reference value :  1.15401e-05
 Reference value :  1.15493e-05
 Reference value :  1.15646e-05
 Reference value :  1.15878e-05
 Reference value :  1.16327e-05
 Reference value :  1.16785e-05
 Reference value :  1.17114e-05
 Reference value :  1.17501e-05
 Reference value :  1.17501e-05
 Reference value :  1.17501e-05
 Reference value :  1.17502e-05
 Reference value :  1.17502e-05
 Reference value :  1.17502e-05
 Reference value :  1.17502e-05
 Reference value :  1.17502e-05
 Reference value :  1.17502e-05
 Reference value :  1.17502e-05
 Reference value :  1.17502e-05
 Reference value :  1.17503e-05
 Reference value :  1.17504e-05
 Reference value :  1.17506e-05
 Reference value :  1.17509e-05
 Reference value :  1.17514e-05
 Reference value :  1.17520e-05
 Reference value :  1.17526e-05
 Reference value :  1.17532e-05
 Reference value :  1.17541e-05
 Reference value :  1.17547e-05
 Reference value :  1.17554e-05
 Reference value :  1.17562e-05
 Reference value :  1.17570e-05
 Reference value :  1.17581e-05
 Reference value :  1.17598e-05
 Reference value :  1.17617e-05
 Reference value :  1.17645e-05
 Reference value :  1.17684e-05
 Reference value :  1.17761e-05
 Reference value :  1.17916e-05
 Reference value :  1.18218e-05
 Reference value :  1.18822e-05
 Reference value :  1.20000e-05
 Reference value :  1.20000e-05
 Reference value :  1.20000e-05
 Reference value :  1.20001e-05
 Reference value :  1.20001e-05
 Reference value :  1.20001e-05
 Reference value :  1.20001e-05
 Reference value :  1.20001e-05
 Reference value :  1.20002e-05
 Reference value :  1.20002e-05
 Reference value :  1.20004e-05
 Reference value :  1.20005e-05
 Reference value :  1.20009e-05
 Reference value :  1.20014e-05
 Reference value :  1.20019e-05
 Reference value :  1.20024e-05
 Reference value :  1.20030e-05
 Reference value :  1.20037e-05
 Reference value :  1.20046e-05
 Reference value :  1.20053e-05
 Reference value :  1.20063e-05
 Reference value :  1.20074e-05
 Reference value :  1.20087e-05
 Reference value :  1.20099e-05
 Reference value :  1.20111e-05
 Reference value :  1.20125e-05
 Reference value :  1.20141e-05
 Reference value :  1.20157e-05
 Reference value :  1.20176e-05
 Reference value :  1.20210e-05
 Reference value :  1.20260e-05
 Reference value :  1.20356e-05
 Reference value :  1.20538e-05
 Reference value :  1.20873e-05
 Reference value :  1.21544e-05
 Reference value :  1.22501e-05
 Reference value :  1.22501e-05
 Reference value :  1.22501e-05
 Reference value :  1.22502e-05
 Reference value :  1.22502e-05
 Reference value :  1.22502e-05
 Reference value :  1.22502e-05
 Reference value :  1.22502e-05
 Reference value :  1.22502e-05
 Reference value :  1.22502e-05
 Reference value :  1.22502e-05
 Reference value :  1.22503e-05
 Reference value :  1.22504e-05
 Reference value :  1.22506e-05
 Reference value :  1.22509e-05
 Reference value :  1.22514e-05
 Reference value :  1.22520e-05
 Reference value :  1.22526e-05
 Reference value :  1.22532e-05
 Reference value :  1.22541e-05
 Reference value :  1.22547e-05
 Reference value :  1.22554e-05
 Reference value :  1.22561e-05
 Reference value :  1.22568e-05
 Reference value :  1.22577e-05
 Reference value :  1.22587e-05
 Reference value :  1.22597e-05
 Reference value :  1.22612e-05
 Reference value :  1.22629e-05
 Reference value :  1.22651e-05
 Reference value :  1.22680e-05
 Reference value :  1.22722e-05
 Reference value :  1.22807e-05
 Reference value :  1.22972e-05
 Reference value :  1.23303e-05
 Reference value :  1.23964e-05
 Reference value :  1.25000e-05
 Reference value :  1.25000e-05
 Reference value :  1.25000e-05
 Reference value :  1.25001e-05
 Reference value :  1.25001e-05
 Reference value :  1.25001e-05
 Reference value :  1.25001e-05
 Reference value :  1.25001e-05
 Reference value :  1.25002e-05
 Reference value :  1.25002e-05
 Reference value :  1.25004e-05
 Reference value :  1.25005e-05
 Reference value :  1.25009e-05
 Reference value :  1.25014e-05
 Reference value :  1.25019e-05
 Reference value :  1.25024e-05
 Reference value :  1.25031e-05
 Reference value :  1.25037e-05
 Reference value :  1.25045e-05
 Reference value :  1.25051e-05
 Reference value :  1.25058e-05
 Reference value :  1.25065e-05
 Reference value :  1.25072e-05
 Reference value :  1.25079e-05
 Reference value :  1.25089e-05
 Reference value :  1.25099e-05
 Reference value :  1.25113e-05
 Reference value :  1.25125e-05
 Reference value :  1.25138e-05
 Reference value :  1.25151e-05
 Reference value :  1.25166e-05
 Reference value :  1.25180e-05
 Reference value :  1.25190e-05
 Reference value :  1.25200e-05
 Reference value :  1.25213e-05
 Reference value :  1.25224e-05
 Reference value :  1.25236e-05
 Reference value :  1.25250e-05
 Reference value :  1.25270e-05
 Reference value :  1.25291e-05
 Reference value :  1.25325e-05
 Reference value :  1.25384e-05
 Reference value :  1.25469e-05
 Reference value :  1.25620e-05
 Reference value :  1.25856e-05
 Reference value :  1.26043e-05
 Reference value :  1.26250e-05
 Reference value :  1.26372e-05
 Reference value :  1.26510e-05
 Reference value :  1.26647e-05
 Reference value :  1.26813e-05
 Reference value :  1.27146e-05
 Reference value :  1.27501e-05
 Reference value :  1.27501e-05
 Reference value :  1.27501e-05
 Reference value :  1.27502e-05
 Reference value :  1.27502e-05
 Reference value :  1.27502e-05
 Reference value :  1.27502e-05
 Reference value :  1.27502e-05
 Reference value :  1.27502e-05
 Reference value :  1.27502e-05
 Reference value :  1.27502e-05
 Reference value :  1.27503e-05
 Reference value :  1.27504e-05
 Reference value :  1.27506e-05
 Reference value :  1.27509e-05
 Reference value :  1.27514e-05
 Reference value :  1.27520e-05
 Reference value :  1.27526e-05
 Reference value :  1.27533e-05
 Reference value :  1.27541e-05
 Reference value :  1.27547e-05
 Reference value :  1.27554e-05
 Reference value :  1.27563e-05
 Reference value :  1.27572e-05
 Reference value :  1.27582e-05
 Reference value :  1.27601e-05
 Reference value :  1.27620e-05
 Reference value :  1.27651e-05
 Reference value :  1.27690e-05
 Reference value :  1.27767e-05
 Reference value :  1.27922e-05
 Reference value :  1.28231e-05
 Reference value :  1.28850e-05
 Reference value :  1.30000e-05
 Reference value :  1.30000e-05
 Reference value :  1.30000e-05
 Reference value :  1.30001e-05
 Reference value :  1.30001e-05
 Reference value :  1.30001e-05
 Reference value :  1.30001e-05
 Reference value :  1.30001e-05
 Reference value :  1.30002e-05
 Reference value :  1.30002e-05
 Reference value :  1.30004e-05
 Reference value :  1.30005e-05
 Reference value :  1.30009e-05
 Reference value :  1.30014e-05
 Reference value :  1.30019e-05
 Reference value :  1.30024e-05
 Reference value :  1.30030e-05
 Reference value :  1.30037e-05
 Reference value :  1.30046e-05
 Reference value :  1.30053e-05
 Reference value :  1.30063e-05
 Reference value :  1.30074e-05
 Reference value :  1.30087e-05
 Reference value :  1.30099e-05
 Reference value :  1.30111e-05
 Reference value :  1.30123e-05
 Reference value :  1.30136e-05
 Reference value :  1.30149e-05
 Reference value :  1.30164e-05
 Reference value :  1.30195e-05
 Reference value :  1.30255e-05
 Reference value :  1.30361e-05
 Reference value :  1.30572e-05
 Reference value :  1.30996e-05
 Reference value :  1.31842e-05
 Reference value :  1.32501e-05
 Reference value :  1.32501e-05
 Reference value :  1.32501e-05
 Reference value :  1.32502e-05
 Reference value :  1.32502e-05
 Reference value :  1.32502e-05
 Reference value :  1.32502e-05
 Reference value :  1.32502e-05
 Reference value :  1.32502e-05
 Reference value :  1.32502e-05
 Reference value :  1.32502e-05
 Reference value :  1.32503e-05
 Reference value :  1.32504e-05
 Reference value :  1.32506e-05
 Reference value :  1.32509e-05
 Reference value :  1.32514e-05
 Reference value :  1.32520e-05
 Reference value :  1.32526e-05
 Reference value :  1.32533e-05
 Reference value :  1.32541e-05
 Reference value :  1.32548e-05
 Reference value :  1.32555e-05
 Reference value :  1.32562e-05
 Reference value :  1.32569e-05
 Reference value :  1.32579e-05
 Reference value :  1.32589e-05
 Reference value :  1.32601e-05
 Reference value :  1.32615e-05
 Reference value :  1.32635e-05
 Reference value :  1.32656e-05
 Reference value :  1.32692e-05
 Reference value :  1.32739e-05
 Reference value :  1.32832e-05
 Reference value :  1.33019e-05
 Reference value :  1.33392e-05
 Reference value :  1.34139e-05
 Reference value :  1.35000e-05
 Reference value :  1.35000e-05
 Reference value :  1.35000e-05
 Reference value :  1.35001e-05
 Reference value :  1.35001e-05
 Reference value :  1.35001e-05
 Reference value :  1.35001e-05
 Reference value :  1.35001e-05
 Reference value :  1.35002e-05
 Reference value :  1.35002e-05
 Reference value :  1.35004e-05
 Reference value :  1.35005e-05
 Reference value :  1.35009e-05
 Reference value :  1.35014e-05
 Reference value :  1.35019e-05
 Reference value :  1.35024e-05
 Reference value :  1.35031e-05
 Reference value :  1.35037e-05
 Reference value :  1.35045e-05
 Reference value :  1.35051e-05
 Reference value :  1.35058e-05
 Reference value :  1.35065e-05
 Reference value :  1.35072e-05
 Reference value :  1.35079e-05
 Reference value :  1.35090e-05
 Reference value :  1.35099e-05
 Reference value :  1.35118e-05
 Reference value :  1.35129e-05
 Reference value :  1.35143e-05
 Reference value :  1.35156e-05
 Reference value :  1.35171e-05
 Reference value :  1.35186e-05
 Reference value :  1.35200e-05
 Reference value :  1.35215e-05
 Reference value :  1.35228e-05
 Reference value :  1.35242e-05
 Reference value :  1.35259e-05
 Reference value :  1.35280e-05
 Reference value :  1.35303e-05
 Reference value :  1.35341e-05
 Reference value :  1.35395e-05
 Reference value :  1.35482e-05
 Reference value :  1.35596e-05
 Reference value :  1.35700e-05
 Reference value :  1.35785e-05
 Reference value :  1.35881e-05
 Reference value :  1.36011e-05
 Reference value :  1.36226e-05
 Reference value :  1.36354e-05
 Reference value :  1.36479e-05
 Reference value :  1.36586e-05
 Reference value :  1.36726e-05
 Reference value :  1.37004e-05
 Reference value :  1.37391e-05
 Reference value :  1.37501e-05
 Reference value :  1.37501e-05
 Reference value :  1.37501e-05
 Reference value :  1.37502e-05
 Reference value :  1.37502e-05
 Reference value :  1.37502e-05
 Reference value :  1.37502e-05
 Reference value :  1.37502e-05
 Reference value :  1.37502e-05
 Reference value :  1.37502e-05
 Reference value :  1.37502e-05
 Reference value :  1.37503e-05
 Reference value :  1.37504e-05
 Reference value :  1.37506e-05
 Reference value :  1.37509e-05
 Reference value :  1.37514e-05
 Reference value :  1.37520e-05
 Reference value :  1.37526e-05
 Reference value :  1.37533e-05
 Reference value :  1.37541e-05
 Reference value :  1.37547e-05
 Reference value :  1.37554e-05
 Reference value :  1.37563e-05
 Reference value :  1.37572e-05
 Reference value :  1.37583e-05
 Reference value :  1.37602e-05
 Reference value :  1.37621e-05
 Reference value :  1.37652e-05
 Reference value :  1.37691e-05
 Reference value :  1.37769e-05
 Reference value :  1.37924e-05
 Reference value :  1.38236e-05
 Reference value :  1.38858e-05
 Reference value :  1.39831e-05
 Reference value :  1.40000e-05
 Reference value :  1.40000e-05
 Reference value :  1.40000e-05
 Reference value :  1.40001e-05
 Reference value :  1.40001e-05
 Reference value :  1.40001e-05
 Reference value :  1.40001e-05
 Reference value :  1.40001e-05
 Reference value :  1.40002e-05
 Reference value :  1.40002e-05
 Reference value :  1.40004e-05
 Reference value :  1.40005e-05
 Reference value :  1.40009e-05
 Reference value :  1.40014e-05
 Reference value :  1.40019e-05
 Reference value :  1.40024e-05
 Reference value :  1.40030e-05
 Reference value :  1.40037e-05
 Reference value :  1.40045e-05
 Reference value :  1.40053e-05
 Reference value :  1.40063e-05
 Reference value :  1.40076e-05
 Reference value :  1.40089e-05
 Reference value :  1.40102e-05
 Reference value :  1.40116e-05
 Reference value :  1.40129e-05
 Reference value :  1.40143e-05
 Reference value :  1.40159e-05
 Reference value :  1.40177e-05
 Reference value :  1.40209e-05
 Reference value :  1.40256e-05
 Reference value :  1.40342e-05
 Reference value :  1.40500e-05
 Reference value :  1.40786e-05
 Reference value :  1.41342e-05
 Reference value :  1.42455e-05
 Reference value :  1.42501e-05
 Reference value :  1.42501e-05
 Reference value :  1.42501e-05
 Reference value :  1.42502e-05
 Reference value :  1.42502e-05
 Reference value :  1.42502e-05
 Reference value :  1.42502e-05
 Reference value :  1.42502e-05
 Reference value :  1.42502e-05
 Reference value :  1.42502e-05
 Reference value :  1.42502e-05
 Reference value :  1.42503e-05
 Reference value :  1.42504e-05
 Reference value :  1.42506e-05
 Reference value :  1.42509e-05
 Reference value :  1.42514e-05
 Reference value :  1.42520e-05
 Reference value :  1.42526e-05
 Reference value :  1.42533e-05
 Reference value :  1.42541e-05
 Reference value :  1.42547e-05
 Reference value :  1.42554e-05
 Reference value :  1.42561e-05
 Reference value :  1.42568e-05
 Reference value :  1.42578e-05
 Reference value :  1.42588e-05
 Reference value :  1.42599e-05
 Reference value :  1.42614e-05
 Reference value :  1.42633e-05
 Reference value :  1.42654e-05
 Reference value :  1.42687e-05
 Reference value :  1.42731e-05
 Reference value :  1.42819e-05
 Reference value :  1.42994e-05
 Reference value :  1.43344e-05
 Reference value :  1.44045e-05
 Reference value :  1.45000e-05
 Reference value :  1.45000e-05
 Reference value :  1.45000e-05
 Reference value :  1.45001e-05
 Reference value :  1.45001e-05
 Reference value :  1.45001e-05
 Reference value :  1.45001e-05
 Reference value :  1.45001e-05
 Reference value :  1.45002e-05
 Reference value :  1.45002e-05
 Reference value :  1.45004e-05
 Reference value :  1.45005e-05
 Reference value :  1.45009e-05
 Reference value :  1.45014e-05
 Reference value :  1.45019e-05
 Reference value :  1.45024e-05
 Reference value :  1.45031e-05
 Reference value :  1.45037e-05
 Reference value :  1.45045e-05
 Reference value :  1.45051e-05
 Reference value :  1.45058e-05
 Reference value :  1.45065e-05
 Reference value :  1.45073e-05
 Reference value :  1.45080e-05
 Reference value :  1.45091e-05
 Reference value :  1.45101e-05
 Reference value :  1.45120e-05
 Reference value :  1.45133e-05
 Reference value :  1.45147e-05
 Reference value :  1.45160e-05
 Reference value :  1.45175e-05
 Reference value :  1.45191e-05
 Reference value :  1.45205e-05
 Reference value :  1.45219e-05
 Reference value :  1.45232e-05
 Reference value :  1.45246e-05
 Reference value :  1.45261e-05
 Reference value :  1.45282e-05
 Reference value :  1.45306e-05
 Reference value :  1.45349e-05
 Reference value :  1.45407e-05
 Reference value :  1.45485e-05
 Reference value :  1.45562e-05
 Reference value :  1.45645e-05
 Reference value :  1.45760e-05
 Reference value :  1.45839e-05
 Reference value :  1.45922e-05
 Reference value :  1.46023e-05
 Reference value :  1.46179e-05
 Reference value :  1.46355e-05
 Reference value :  1.46538e-05
 Reference value :  1.46904e-05
 Reference value :  1.47501e-05
 Reference value :  1.47501e-05
 Reference value :  1.47501e-05
 Reference value :  1.47502e-05
 Reference value :  1.47502e-05
 Reference value :  1.47502e-05
 Reference value :  1.47502e-05
 Reference value :  1.47502e-05
 Reference value :  1.47502e-05
 Reference value :  1.47502e-05
 Reference value :  1.47502e-05
 Reference value :  1.47503e-05
 Reference value :  1.47504e-05
 Reference value :  1.47506e-05
 Reference value :  1.47509e-05
 Reference value :  1.47514e-05
 Reference value :  1.47520e-05
 Reference value :  1.47526e-05
 Reference value :  1.47533e-05
 Reference value :  1.47541e-05
 Reference value :  1.47547e-05
 Reference value :  1.47554e-05
 Reference value :  1.47564e-05
 Reference value :  1.47572e-05
 Reference value :  1.47583e-05
 Reference value :  1.47604e-05
 Reference value :  1.47623e-05
 Reference value :  1.47656e-05
 Reference value :  1.47695e-05
 Reference value :  1.47775e-05
 Reference value :  1.47934e-05
 Reference value :  1.48252e-05
 Reference value :  1.48887e-05
 Reference value :  1.50000e-05
 Reference value :  1.50000e-05
 Reference value :  1.50000e-05
 Reference value :  1.50001e-05
 Reference value :  1.50001e-05
 Reference value :  1.50001e-05
 Reference value :  1.50001e-05
 Reference value :  1.50001e-05
 Reference value :  1.50002e-05
 Reference value :  1.50002e-05
 Reference value :  1.50004e-05
 Reference value :  1.50005e-05
 Reference value :  1.50009e-05
 Reference value :  1.50014e-05
 Reference value :  1.50019e-05
 Reference value :  1.50025e-05
 Reference value :  1.50031e-05
 Reference value :  1.50038e-05
 Reference value :  1.50045e-05
 Reference value :  1.50054e-05
 Reference value :  1.50062e-05
 Reference value :  1.50073e-05
 Reference value :  1.50087e-05
 Reference value :  1.50099e-05
 Reference value :  1.50111e-05
 Reference value :  1.50122e-05
 Reference value :  1.50135e-05
 Reference value :  1.50149e-05
 Reference value :  1.50164e-05
 Reference value :  1.50194e-05
 Reference value :  1.50253e-05
 Reference value :  1.50359e-05
 Reference value :  1.50569e-05
 Reference value :  1.50991e-05
 Reference value :  1.51833e-05
 Reference value :  1.52501e-05
 Reference value :  1.52501e-05
 Reference value :  1.52501e-05
 Reference value :  1.52502e-05
 Reference value :  1.52502e-05
 Reference value :  1.52502e-05
 Reference value :  1.52502e-05
 Reference value :  1.52502e-05
 Reference value :  1.52502e-05
 Reference value :  1.52502e-05
 Reference value :  1.52502e-05
 Reference value :  1.52503e-05
 Reference value :  1.52504e-05
 Reference value :  1.52506e-05
 Reference value :  1.52509e-05
 Reference value :  1.52514e-05
 Reference value :  1.52520e-05
 Reference value :  1.52526e-05
 Reference value :  1.52533e-05
 Reference value :  1.52541e-05
 Reference value :  1.52547e-05
 Reference value :  1.52554e-05
 Reference value :  1.52561e-05
 Reference value :  1.52569e-05
 Reference value :  1.52578e-05
 Reference value :  1.52589e-05
 Reference value :  1.52610e-05
 Reference value :  1.52631e-05
 Reference value :  1.52669e-05
 Reference value :  1.52718e-05
 Reference value :  1.52814e-05
 Reference value :  1.53008e-05
 Reference value :  1.53394e-05
 Reference value :  1.54167e-05
 Reference value :  1.55000e-05
 Reference value :  1.55012e-05
 Reference value :  1.55036e-05
 Reference value :  1.55048e-05
 Reference value :  1.55060e-05
 Reference value :  1.55074e-05
 Reference value :  1.55086e-05
 Reference value :  1.55098e-05
 Reference value :  1.55112e-05
 Reference value :  1.55127e-05
 Reference value :  1.55148e-05
 Reference value :  1.55169e-05
 Reference value :  1.55188e-05
 Reference value :  1.55202e-05
 Reference value :  1.55216e-05
 Reference value :  1.55229e-05
 Reference value :  1.55243e-05
 Reference value :  1.55259e-05
 Reference value :  1.55276e-05
 Reference value :  1.55299e-05
 Reference value :  1.55331e-05
 Reference value :  1.55383e-05
 Reference value :  1.55441e-05
 Reference value :  1.55522e-05
 Reference value :  1.55573e-05
 Reference value :  1.55630e-05
[...]
 Reference value :  1.74253e-04
 Reference value :  1.74254e-04
 Reference value :  1.74255e-04
 Reference value :  1.74255e-04
 Reference value :  1.74256e-04
 Reference value :  1.74257e-04
 Reference value :  1.74258e-04
 Reference value :  1.74260e-04
 Reference value :  1.74262e-04
 Reference value :  1.74266e-04
 Reference value :  1.74269e-04
 Reference value :  1.74277e-04
 Reference value :  1.74286e-04
 Reference value :  1.74293e-04
 Reference value :  1.74299e-04
 Reference value :  1.74308e-04
 Reference value :  1.74317e-04
 Reference value :  1.74331e-04
 Reference value :  1.74344e-04
 Reference value :  1.74356e-04
 Reference value :  1.74372e-04
 Reference value :  1.74394e-04
 Reference value :  1.74433e-04
 Reference value :  1.74487e-04
 Reference value :  1.74500e-04
 Reference value :  1.74500e-04
 Reference value :  1.74500e-04
 Reference value :  1.74500e-04
 Reference value :  1.74500e-04
 Reference value :  1.74500e-04
 Reference value :  1.74500e-04
 Reference value :  1.74500e-04
 Reference value :  1.74500e-04
 Reference value :  1.74500e-04
 Reference value :  1.74500e-04
 Reference value :  1.74501e-04
 Reference value :  1.74501e-04
 Reference value :  1.74501e-04
 Reference value :  1.74502e-04
 Reference value :  1.74502e-04
 Reference value :  1.74503e-04
 Reference value :  1.74504e-04
 Reference value :  1.74504e-04
 Reference value :  1.74505e-04
 Reference value :  1.74506e-04
 Reference value :  1.74507e-04
 Reference value :  1.74509e-04
 Reference value :  1.74510e-04
 Reference value :  1.74511e-04
 Reference value :  1.74512e-04
 Reference value :  1.74514e-04
 Reference value :  1.74515e-04
 Reference value :  1.74516e-04
 Reference value :  1.74519e-04
 Reference value :  1.74525e-04
 Reference value :  1.74536e-04
 Reference value :  1.74557e-04
 Reference value :  1.74599e-04
 Reference value :  1.74683e-04
 Reference value :  1.74750e-04
 Reference value :  1.74750e-04
 Reference value :  1.74750e-04
 Reference value :  1.74750e-04
 Reference value :  1.74750e-04
 Reference value :  1.74750e-04
 Reference value :  1.74750e-04
 Reference value :  1.74750e-04
 Reference value :  1.74750e-04
 Reference value :  1.74750e-04
 Reference value :  1.74750e-04
 Reference value :  1.74750e-04
 Reference value :  1.74750e-04
 Reference value :  1.74751e-04
 Reference value :  1.74751e-04
 Reference value :  1.74751e-04
 Reference value :  1.74752e-04
 Reference value :  1.74753e-04
 Reference value :  1.74753e-04
 Reference value :  1.74754e-04
 Reference value :  1.74755e-04
 Reference value :  1.74755e-04
 Reference value :  1.74756e-04
 Reference value :  1.74757e-04
 Reference value :  1.74758e-04
 Reference value :  1.74759e-04
 Reference value :  1.74760e-04
 Reference value :  1.74762e-04
 Reference value :  1.74764e-04
 Reference value :  1.74766e-04
 Reference value :  1.74769e-04
 Reference value :  1.74774e-04
 Reference value :  1.74783e-04
 Reference value :  1.74801e-04
 Reference value :  1.74838e-04
 Reference value :  1.74911e-04
 Reference value :  1.75000e-04
 Reference value :  1.75000e-04
 Reference value :  1.75000e-04
 Reference value :  1.75000e-04
 Reference value :  1.75000e-04
 Reference value :  1.75000e-04
 Reference value :  1.75000e-04
 Reference value :  1.75000e-04
 Reference value :  1.75000e-04
 Reference value :  1.75000e-04
 Reference value :  1.75000e-04
 Reference value :  1.75001e-04
 Reference value :  1.75001e-04
 Reference value :  1.75001e-04
 Reference value :  1.75002e-04
 Reference value :  1.75002e-04
 Reference value :  1.75003e-04
 Reference value :  1.75004e-04
 Reference value :  1.75005e-04
 Reference value :  1.75005e-04
 Reference value :  1.75006e-04
 Reference value :  1.75007e-04
 Reference value :  1.75007e-04
 Reference value :  1.75008e-04
 Reference value :  1.75009e-04
 Reference value :  1.75010e-04
 Reference value :  1.75012e-04
 Reference value :  1.75013e-04
 Reference value :  1.75014e-04
 Reference value :  1.75016e-04
 Reference value :  1.75017e-04
 Reference value :  1.75019e-04
 Reference value :  1.75020e-04
 Reference value :  1.75022e-04
 Reference value :  1.75023e-04
 Reference value :  1.75024e-04
 Reference value :  1.75026e-04
 Reference value :  1.75028e-04
 Reference value :  1.75030e-04
 Reference value :  1.75033e-04
 Reference value :  1.75036e-04
 Reference value :  1.75039e-04
 Reference value :  1.75041e-04
 Reference value :  1.75044e-04
 Reference value :  1.75047e-04
 Reference value :  1.75053e-04
 Reference value :  1.75060e-04
 Reference value :  1.75072e-04
 Reference value :  1.75086e-04
 Reference value :  1.75104e-04
 Reference value :  1.75129e-04
 Reference value :  1.75176e-04
 Reference value :  1.75234e-04
 Reference value :  1.75250e-04
 Reference value :  1.75250e-04
 Reference value :  1.75250e-04
 Reference value :  1.75250e-04
 Reference value :  1.75250e-04
 Reference value :  1.75250e-04
 Reference value :  1.75250e-04
 Reference value :  1.75250e-04
 Reference value :  1.75250e-04
 Reference value :  1.75250e-04
 Reference value :  1.75250e-04
 Reference value :  1.75250e-04
 Reference value :  1.75250e-04
 Reference value :  1.75251e-04
 Reference value :  1.75251e-04
 Reference value :  1.75251e-04
 Reference value :  1.75252e-04
 Reference value :  1.75253e-04
 Reference value :  1.75253e-04
 Reference value :  1.75254e-04
 Reference value :  1.75255e-04
 Reference value :  1.75255e-04
 Reference value :  1.75256e-04
 Reference value :  1.75257e-04
 Reference value :  1.75258e-04
 Reference value :  1.75260e-04
 Reference value :  1.75262e-04
 Reference value :  1.75265e-04
 Reference value :  1.75269e-04
 Reference value :  1.75277e-04
 Reference value :  1.75293e-04
 Reference value :  1.75325e-04
 Reference value :  1.75388e-04
 Reference value :  1.75500e-04
 Reference value :  1.75500e-04
 Reference value :  1.75500e-04
 Reference value :  1.75500e-04
 Reference value :  1.75500e-04
 Reference value :  1.75500e-04
 Reference value :  1.75500e-04
 Reference value :  1.75500e-04
 Reference value :  1.75500e-04
 Reference value :  1.75500e-04
 Reference value :  1.75500e-04
 Reference value :  1.75501e-04
 Reference value :  1.75501e-04
 Reference value :  1.75501e-04
 Reference value :  1.75502e-04
 Reference value :  1.75502e-04
 Reference value :  1.75503e-04
 Reference value :  1.75504e-04
 Reference value :  1.75505e-04
 Reference value :  1.75505e-04
 Reference value :  1.75506e-04
 Reference value :  1.75508e-04
 Reference value :  1.75509e-04
 Reference value :  1.75510e-04
 Reference value :  1.75512e-04
 Reference value :  1.75513e-04
 Reference value :  1.75514e-04
 Reference value :  1.75516e-04
 Reference value :  1.75518e-04
 Reference value :  1.75521e-04
 Reference value :  1.75525e-04
 Reference value :  1.75534e-04
 Reference value :  1.75549e-04
 Reference value :  1.75579e-04
 Reference value :  1.75637e-04
 Reference value :  1.75750e-04
 Reference value :  1.75750e-04
 Reference value :  1.75750e-04
 Reference value :  1.75750e-04
 Reference value :  1.75750e-04
 Reference value :  1.75750e-04
 Reference value :  1.75750e-04
 Reference value :  1.75750e-04
 Reference value :  1.75750e-04
 Reference value :  1.75750e-04
 Reference value :  1.75750e-04
 Reference value :  1.75750e-04
 Reference value :  1.75750e-04
 Reference value :  1.75751e-04
 Reference value :  1.75751e-04
 Reference value :  1.75751e-04
 Reference value :  1.75752e-04
 Reference value :  1.75753e-04
 Reference value :  1.75753e-04
 Reference value :  1.75754e-04
 Reference value :  1.75755e-04
 Reference value :  1.75755e-04
 Reference value :  1.75756e-04
 Reference value :  1.75757e-04
 Reference value :  1.75758e-04
 Reference value :  1.75759e-04
 Reference value :  1.75761e-04
 Reference value :  1.75763e-04
 Reference value :  1.75767e-04
 Reference value :  1.75772e-04
 Reference value :  1.75781e-04
 Reference value :  1.75800e-04
 Reference value :  1.75838e-04
 Reference value :  1.75915e-04
 Reference value :  1.76000e-04
 Reference value :  1.76000e-04
 Reference value :  1.76000e-04
 Reference value :  1.76000e-04
 Reference value :  1.76000e-04
 Reference value :  1.76000e-04
 Reference value :  1.76000e-04
 Reference value :  1.76000e-04
 Reference value :  1.76000e-04
 Reference value :  1.76000e-04
 Reference value :  1.76000e-04
 Reference value :  1.76001e-04
 Reference value :  1.76001e-04
 Reference value :  1.76001e-04
 Reference value :  1.76002e-04
 Reference value :  1.76002e-04
 Reference value :  1.76003e-04
 Reference value :  1.76004e-04
 Reference value :  1.76005e-04
 Reference value :  1.76005e-04
 Reference value :  1.76006e-04
 Reference value :  1.76007e-04
 Reference value :  1.76007e-04
 Reference value :  1.76008e-04
 Reference value :  1.76009e-04
 Reference value :  1.76011e-04
 Reference value :  1.76013e-04
 Reference value :  1.76015e-04
 Reference value :  1.76017e-04
 Reference value :  1.76019e-04
 Reference value :  1.76021e-04
 Reference value :  1.76023e-04
 Reference value :  1.76024e-04
 Reference value :  1.76026e-04
 Reference value :  1.76028e-04
 Reference value :  1.76030e-04
 Reference value :  1.76034e-04
 Reference value :  1.76039e-04
 Reference value :  1.76048e-04
 Reference value :  1.76057e-04
 Reference value :  1.76073e-04
 Reference value :  1.76092e-04
 Reference value :  1.76119e-04
 Reference value :  1.76172e-04
 Reference value :  1.76246e-04
 Reference value :  1.76250e-04
 Reference value :  1.76250e-04
 Reference value :  1.76250e-04
 Reference value :  1.76250e-04
 Reference value :  1.76250e-04
 Reference value :  1.76250e-04
 Reference value :  1.76250e-04
 Reference value :  1.76250e-04
 Reference value :  1.76250e-04
 Reference value :  1.76250e-04
 Reference value :  1.76250e-04
 Reference value :  1.76250e-04
 Reference value :  1.76250e-04
 Reference value :  1.76251e-04
 Reference value :  1.76251e-04
 Reference value :  1.76251e-04
 Reference value :  1.76252e-04
 Reference value :  1.76253e-04
 Reference value :  1.76253e-04
 Reference value :  1.76254e-04
 Reference value :  1.76255e-04
 Reference value :  1.76255e-04
 Reference value :  1.76256e-04
 Reference value :  1.76257e-04
 Reference value :  1.76258e-04
 Reference value :  1.76260e-04
 Reference value :  1.76262e-04
 Reference value :  1.76266e-04
 Reference value :  1.76270e-04
 Reference value :  1.76278e-04
 Reference value :  1.76293e-04
 Reference value :  1.76325e-04
 Reference value :  1.76388e-04
 Reference value :  1.76500e-04
 Reference value :  1.76500e-04
 Reference value :  1.76500e-04
 Reference value :  1.76500e-04
 Reference value :  1.76500e-04
 Reference value :  1.76500e-04
 Reference value :  1.76500e-04
 Reference value :  1.76500e-04
 Reference value :  1.76500e-04
 Reference value :  1.76500e-04
 Reference value :  1.76500e-04
 Reference value :  1.76501e-04
 Reference value :  1.76501e-04
 Reference value :  1.76501e-04
 Reference value :  1.76502e-04
 Reference value :  1.76502e-04
 Reference value :  1.76503e-04
 Reference value :  1.76504e-04
 Reference value :  1.76505e-04
 Reference value :  1.76505e-04
 Reference value :  1.76506e-04
 Reference value :  1.76507e-04
 Reference value :  1.76509e-04
 Reference value :  1.76510e-04
 Reference value :  1.76511e-04
 Reference value :  1.76512e-04
 Reference value :  1.76514e-04
 Reference value :  1.76515e-04
 Reference value :  1.76516e-04
 Reference value :  1.76519e-04
 Reference value :  1.76525e-04
 Reference value :  1.76536e-04
 Reference value :  1.76558e-04
 Reference value :  1.76600e-04
 Reference value :  1.76686e-04
 Reference value :  1.76750e-04
 Reference value :  1.76750e-04
 Reference value :  1.76750e-04
 Reference value :  1.76750e-04
 Reference value :  1.76750e-04
 Reference value :  1.76750e-04
 Reference value :  1.76750e-04
 Reference value :  1.76750e-04
 Reference value :  1.76750e-04
 Reference value :  1.76750e-04
 Reference value :  1.76750e-04
 Reference value :  1.76750e-04
 Reference value :  1.76750e-04
 Reference value :  1.76751e-04
 Reference value :  1.76751e-04
 Reference value :  1.76751e-04
 Reference value :  1.76752e-04
 Reference value :  1.76753e-04
 Reference value :  1.76753e-04
 Reference value :  1.76754e-04
 Reference value :  1.76755e-04
 Reference value :  1.76755e-04
 Reference value :  1.76756e-04
 Reference value :  1.76757e-04
 Reference value :  1.76758e-04
 Reference value :  1.76759e-04
 Reference value :  1.76761e-04
 Reference value :  1.76763e-04
 Reference value :  1.76767e-04
 Reference value :  1.76772e-04
 Reference value :  1.76781e-04
 Reference value :  1.76801e-04
 Reference value :  1.76840e-04
 Reference value :  1.76917e-04
 Reference value :  1.77000e-04
 Reference value :  1.77000e-04
 Reference value :  1.77000e-04
 Reference value :  1.77000e-04
 Reference value :  1.77000e-04
 Reference value :  1.77000e-04
 Reference value :  1.77000e-04
 Reference value :  1.77000e-04
 Reference value :  1.77000e-04
 Reference value :  1.77000e-04
 Reference value :  1.77000e-04
 Reference value :  1.77001e-04
 Reference value :  1.77001e-04
 Reference value :  1.77001e-04
 Reference value :  1.77002e-04
 Reference value :  1.77002e-04
 Reference value :  1.77003e-04
 Reference value :  1.77004e-04
 Reference value :  1.77005e-04
 Reference value :  1.77005e-04
 Reference value :  1.77006e-04
 Reference value :  1.77007e-04
 Reference value :  1.77007e-04
 Reference value :  1.77008e-04
 Reference value :  1.77010e-04
 Reference value :  1.77011e-04
 Reference value :  1.77013e-04
 Reference value :  1.77015e-04
 Reference value :  1.77017e-04
 Reference value :  1.77020e-04
 Reference value :  1.77021e-04
 Reference value :  1.77023e-04
 Reference value :  1.77024e-04
 Reference value :  1.77026e-04
 Reference value :  1.77028e-04
 Reference value :  1.77031e-04
 Reference value :  1.77034e-04
 Reference value :  1.77040e-04
 Reference value :  1.77044e-04
 Reference value :  1.77053e-04
 Reference value :  1.77065e-04
 Reference value :  1.77087e-04
 Reference value :  1.77128e-04
 Reference value :  1.77180e-04
 Reference value :  1.77250e-04
 Reference value :  1.77250e-04
 Reference value :  1.77250e-04
 Reference value :  1.77250e-04
 Reference value :  1.77250e-04
 Reference value :  1.77250e-04
 Reference value :  1.77250e-04
 Reference value :  1.77250e-04
 Reference value :  1.77250e-04
 Reference value :  1.77250e-04
 Reference value :  1.77250e-04
 Reference value :  1.77250e-04
 Reference value :  1.77250e-04
 Reference value :  1.77251e-04
 Reference value :  1.77251e-04
 Reference value :  1.77251e-04
 Reference value :  1.77252e-04
 Reference value :  1.77253e-04
 Reference value :  1.77253e-04
 Reference value :  1.77254e-04
 Reference value :  1.77255e-04
 Reference value :  1.77255e-04
 Reference value :  1.77256e-04
 Reference value :  1.77257e-04
 Reference value :  1.77258e-04
 Reference value :  1.77260e-04
 Reference value :  1.77262e-04
 Reference value :  1.77266e-04
 Reference value :  1.77269e-04
 Reference value :  1.77277e-04
 Reference value :  1.77293e-04
 Reference value :  1.77324e-04
 Reference value :  1.77387e-04
 Reference value :  1.77500e-04
 Reference value :  1.77500e-04
 Reference value :  1.77500e-04
 Reference value :  1.77500e-04
 Reference value :  1.77500e-04
 Reference value :  1.77500e-04
 Reference value :  1.77500e-04
 Reference value :  1.77500e-04
 Reference value :  1.77500e-04
 Reference value :  1.77500e-04
 Reference value :  1.77500e-04
 Reference value :  1.77501e-04
 Reference value :  1.77501e-04
 Reference value :  1.77501e-04
 Reference value :  1.77502e-04
 Reference value :  1.77503e-04
 Reference value :  1.77503e-04
 Reference value :  1.77504e-04
 Reference value :  1.77505e-04
 Reference value :  1.77505e-04
 Reference value :  1.77506e-04
 Reference value :  1.77507e-04
 Reference value :  1.77509e-04
 Reference value :  1.77510e-04
 Reference value :  1.77512e-04
 Reference value :  1.77513e-04
 Reference value :  1.77514e-04
 Reference value :  1.77516e-04
 Reference value :  1.77517e-04
 Reference value :  1.77520e-04
 Reference value :  1.77525e-04
 Reference value :  1.77535e-04
 Reference value :  1.77554e-04
 Reference value :  1.77592e-04
 Reference value :  1.77669e-04
 Reference value :  1.77740e-04
 Reference value :  1.77750e-04
 Reference value :  1.77750e-04
 Reference value :  1.77750e-04
 Reference value :  1.77750e-04
 Reference value :  1.77750e-04
 Reference value :  1.77750e-04
 Reference value :  1.77750e-04
 Reference value :  1.77750e-04
 Reference value :  1.77750e-04
 Reference value :  1.77750e-04
 Reference value :  1.77750e-04
 Reference value :  1.77750e-04
 Reference value :  1.77750e-04
 Reference value :  1.77751e-04
 Reference value :  1.77751e-04
 Reference value :  1.77751e-04
 Reference value :  1.77752e-04
 Reference value :  1.77753e-04
 Reference value :  1.77753e-04
 Reference value :  1.77754e-04
 Reference value :  1.77755e-04
 Reference value :  1.77755e-04
 Reference value :  1.77756e-04
 Reference value :  1.77757e-04
 Reference value :  1.77758e-04
 Reference value :  1.77759e-04
 Reference value :  1.77760e-04
 Reference value :  1.77761e-04
 Reference value :  1.77763e-04
 Reference value :  1.77765e-04
 Reference value :  1.77768e-04
 Reference value :  1.77773e-04
 Reference value :  1.77781e-04
 Reference value :  1.77798e-04
 Reference value :  1.77831e-04
 Reference value :  1.77897e-04
 Reference value :  1.78000e-04
 Reference value :  1.78000e-04
 Reference value :  1.78000e-04
 Reference value :  1.78000e-04
 Reference value :  1.78000e-04
 Reference value :  1.78000e-04
 Reference value :  1.78000e-04
 Reference value :  1.78000e-04
 Reference value :  1.78000e-04
 Reference value :  1.78000e-04
 Reference value :  1.78000e-04
 Reference value :  1.78001e-04
 Reference value :  1.78001e-04
 Reference value :  1.78001e-04
 Reference value :  1.78002e-04
 Reference value :  1.78002e-04
 Reference value :  1.78003e-04
 Reference value :  1.78004e-04
 Reference value :  1.78005e-04
 Reference value :  1.78005e-04
 Reference value :  1.78006e-04
 Reference value :  1.78007e-04
 Reference value :  1.78007e-04
 Reference value :  1.78008e-04
 Reference value :  1.78009e-04
 Reference value :  1.78010e-04
 Reference value :  1.78012e-04
 Reference value :  1.78013e-04
 Reference value :  1.78015e-04
 Reference value :  1.78016e-04
 Reference value :  1.78018e-04
 Reference value :  1.78019e-04
 Reference value :  1.78021e-04
 Reference value :  1.78023e-04
 Reference value :  1.78025e-04
 Reference value :  1.78026e-04
 Reference value :  1.78028e-04
 Reference value :  1.78031e-04
 Reference value :  1.78034e-04
 Reference value :  1.78042e-04
 Reference value :  1.78055e-04
 Reference value :  1.78075e-04
 Reference value :  1.78112e-04
 Reference value :  1.78187e-04
 Reference value :  1.78250e-04
 Reference value :  1.78250e-04
 Reference value :  1.78250e-04
 Reference value :  1.78250e-04
 Reference value :  1.78250e-04
 Reference value :  1.78250e-04
 Reference value :  1.78250e-04
 Reference value :  1.78250e-04
 Reference value :  1.78250e-04
 Reference value :  1.78250e-04
 Reference value :  1.78250e-04
 Reference value :  1.78250e-04
 Reference value :  1.78250e-04
 Reference value :  1.78251e-04
 Reference value :  1.78251e-04
 Reference value :  1.78251e-04
 Reference value :  1.78252e-04
 Reference value :  1.78253e-04
 Reference value :  1.78253e-04
 Reference value :  1.78254e-04
 Reference value :  1.78255e-04
 Reference value :  1.78256e-04
 Reference value :  1.78258e-04
 Reference value :  1.78259e-04
 Reference value :  1.78261e-04
 Reference value :  1.78264e-04
 Reference value :  1.78267e-04
 Reference value :  1.78273e-04
 Reference value :  1.78284e-04
 Reference value :  1.78307e-04
 Reference value :  1.78352e-04
 Reference value :  1.78441e-04
 Reference value :  1.78500e-04
No. of Data Rows : 27840
ngspice-44 done
