
Note: Compatibility modes selected: hs a


Circuit: ** sch_path: /home/samantha/cace/sar-adc-using-sky130-pdk/runs/run_2025-09-05_16-10-12/parameters/power/run_02/power_consumption.sch

option SCALE: Scale is set to 1e-06 for instance and model parameters
option SCALE: Scale is set to 1e-06 for instance and model parameters
option SCALE: Scale is set to 1e-06 for instance and model parameters
option SCALE: Scale is set to 1e-06 for instance and model parameters
Doing analysis at TEMP = 27.000000 and TNOM = 27.000000

Using KLU as Direct Linear Solver
 Reference value :  0.00000e+00
 Reference value :  2.00000e-12
 Reference value :  3.20000e-11
 Reference value :  1.06400e-10
 Reference value :  1.96000e-10
 Reference value :  4.68998e-10
 Reference value :  9.84656e-10
 Reference value :  1.85614e-09
 Reference value :  2.70673e-09
 Reference value :  3.15134e-09
 Reference value :  4.17188e-09
 Reference value :  5.42077e-09
 Reference value :  7.01835e-09
 Reference value :  8.75838e-09
 Reference value :  1.07850e-08
 Reference value :  1.16276e-08
 Reference value :  1.33324e-08
 Reference value :  1.74899e-08
 Reference value :  3.65632e-08
 Reference value :  5.56705e-08
 Reference value :  7.81095e-08
 Reference value :  2.42929e-07
 Reference value :  2.50130e-07
 Reference value :  2.50200e-07
 Reference value :  2.50247e-07
 Reference value :  2.50406e-07
 Reference value :  2.50742e-07
 Reference value :  2.51418e-07
 Reference value :  2.51833e-07
 Reference value :  2.52270e-07
 Reference value :  2.53542e-07
 Reference value :  2.55267e-07
 Reference value :  2.58040e-07
 Reference value :  2.65269e-07
 Reference value :  3.28780e-07
 Reference value :  5.00010e-07
 Reference value :  5.00070e-07
 Reference value :  5.00124e-07
 Reference value :  5.00344e-07
 Reference value :  5.01207e-07
 Reference value :  5.01576e-07
 Reference value :  5.02488e-07
 Reference value :  5.02991e-07
 Reference value :  5.04900e-07
 Reference value :  5.06878e-07
 Reference value :  5.09381e-07
 Reference value :  5.12018e-07
 Reference value :  5.13400e-07
 Reference value :  5.16847e-07
 Reference value :  5.18957e-07
 Reference value :  5.28175e-07
 Reference value :  5.57308e-07
 Reference value :  7.50100e-07
 Reference value :  7.50110e-07
 Reference value :  7.50200e-07
 Reference value :  7.50224e-07
 Reference value :  7.50320e-07
 Reference value :  7.50629e-07
 Reference value :  7.50874e-07
 Reference value :  7.51771e-07
 Reference value :  7.52796e-07
 Reference value :  7.53494e-07
 Reference value :  7.53992e-07
 Reference value :  7.54566e-07
 Reference value :  7.55169e-07
 Reference value :  7.55857e-07
 Reference value :  7.56671e-07
 Reference value :  7.58453e-07
 Reference value :  7.61423e-07
 Reference value :  7.66537e-07
 Reference value :  7.71460e-07
 Reference value :  7.92817e-07
 Reference value :  8.49726e-07
 Reference value :  1.00000e-06
 Reference value :  1.00001e-06
 Reference value :  1.00003e-06
 Reference value :  1.00010e-06
 Reference value :  1.00011e-06
 Reference value :  1.00016e-06
 Reference value :  1.00034e-06
 Reference value :  1.00053e-06
 Reference value :  1.00088e-06
 Reference value :  1.00163e-06
 Reference value :  1.00210e-06
 Reference value :  1.00258e-06
 Reference value :  1.00308e-06
 Reference value :  1.00420e-06
 Reference value :  1.00471e-06
 Reference value :  1.00520e-06
 Reference value :  1.00575e-06
 Reference value :  1.00641e-06
 Reference value :  1.00712e-06
 Reference value :  1.00811e-06
 Reference value :  1.00922e-06
 Reference value :  1.01013e-06
 Reference value :  1.01108e-06
 Reference value :  1.01200e-06
 Reference value :  1.01302e-06
 Reference value :  1.01373e-06
 Reference value :  1.01533e-06
 Reference value :  1.01715e-06
 Reference value :  1.01812e-06
 Reference value :  1.01916e-06
 Reference value :  1.02100e-06
 Reference value :  1.02644e-06
 Reference value :  1.04432e-06
 Reference value :  1.06562e-06
 Reference value :  1.10821e-06
 Reference value :  1.24325e-06
 Reference value :  1.25011e-06
 Reference value :  1.25017e-06
 Reference value :  1.25021e-06
 Reference value :  1.25026e-06
 Reference value :  1.25045e-06
 Reference value :  1.25087e-06
 Reference value :  1.25136e-06
 Reference value :  1.25177e-06
 Reference value :  1.25280e-06
 Reference value :  1.25349e-06
 Reference value :  1.25398e-06
 Reference value :  1.25509e-06
 Reference value :  1.25578e-06
 Reference value :  1.25797e-06
 Reference value :  1.26608e-06
 Reference value :  1.28739e-06
 Reference value :  1.37021e-06
 Reference value :  1.50000e-06
 Reference value :  1.50003e-06
 Reference value :  1.50010e-06
 Reference value :  1.50012e-06
 Reference value :  1.50016e-06
 Reference value :  1.50034e-06
 Reference value :  1.50088e-06
 Reference value :  1.50159e-06
 Reference value :  1.50251e-06
 Reference value :  1.50300e-06
 Reference value :  1.50356e-06
 Reference value :  1.50410e-06
 Reference value :  1.50488e-06
 Reference value :  1.50561e-06
 Reference value :  1.50622e-06
 Reference value :  1.50791e-06
 Reference value :  1.50979e-06
 Reference value :  1.51090e-06
 Reference value :  1.51462e-06
 Reference value :  1.54123e-06
 Reference value :  1.62314e-06
 Reference value :  1.75010e-06
 Reference value :  1.75013e-06
 Reference value :  1.75020e-06
 Reference value :  1.75022e-06
 Reference value :  1.75032e-06
 Reference value :  1.75063e-06
 Reference value :  1.75136e-06
 Reference value :  1.75177e-06
 Reference value :  1.75280e-06
 Reference value :  1.75349e-06
 Reference value :  1.75399e-06
 Reference value :  1.75517e-06
 Reference value :  1.75592e-06
 Reference value :  1.75752e-06
 Reference value :  1.75862e-06
 Reference value :  1.75964e-06
 Reference value :  1.76355e-06
 Reference value :  1.77248e-06
 Reference value :  1.81590e-06
 Reference value :  1.90882e-06
 Reference value :  2.00001e-06
 Reference value :  2.00007e-06
 Reference value :  2.00011e-06
 Reference value :  2.00016e-06
 Reference value :  2.00034e-06
 Reference value :  2.00088e-06
 Reference value :  2.00163e-06
 Reference value :  2.00258e-06
 Reference value :  2.00308e-06
 Reference value :  2.00420e-06
 Reference value :  2.00521e-06
 Reference value :  2.00576e-06
 Reference value :  2.00642e-06
 Reference value :  2.00813e-06
 Reference value :  2.00923e-06
 Reference value :  2.01015e-06
 Reference value :  2.01111e-06
 Reference value :  2.01203e-06
 Reference value :  2.01305e-06
 Reference value :  2.01375e-06
 Reference value :  2.01448e-06
 Reference value :  2.01538e-06
 Reference value :  2.01624e-06
 Reference value :  2.01811e-06
 Reference value :  2.02099e-06
 Reference value :  2.02643e-06
 Reference value :  2.04392e-06
 Reference value :  2.09365e-06
 Reference value :  2.20487e-06
 Reference value :  2.25011e-06
 Reference value :  2.25017e-06
 Reference value :  2.25021e-06
 Reference value :  2.25022e-06
 Reference value :  2.25032e-06
 Reference value :  2.25063e-06
 Reference value :  2.25087e-06
 Reference value :  2.25177e-06
 Reference value :  2.25280e-06
 Reference value :  2.25349e-06
 Reference value :  2.25398e-06
 Reference value :  2.25455e-06
 Reference value :  2.25509e-06
 Reference value :  2.25579e-06
 Reference value :  2.25798e-06
 Reference value :  2.26253e-06
 Reference value :  2.27321e-06
 Reference value :  2.31467e-06
 Reference value :  2.42630e-06
 Reference value :  2.50000e-06
 Reference value :  2.50003e-06
 Reference value :  2.50010e-06
 Reference value :  2.50012e-06
 Reference value :  2.50022e-06
 Reference value :  2.50034e-06
 Reference value :  2.50088e-06
 Reference value :  2.50159e-06
 Reference value :  2.50203e-06
 Reference value :  2.50300e-06
 Reference value :  2.50356e-06
 Reference value :  2.50410e-06
 Reference value :  2.50561e-06
 Reference value :  2.50622e-06
 Reference value :  2.50791e-06
 Reference value :  2.50885e-06
 Reference value :  2.50979e-06
 Reference value :  2.51091e-06
 Reference value :  2.51462e-06
 Reference value :  2.52615e-06
 Reference value :  2.56704e-06
 Reference value :  2.61981e-06
 Reference value :  2.72534e-06
 Reference value :  2.75011e-06
 Reference value :  2.75013e-06
 Reference value :  2.75017e-06
 Reference value :  2.75021e-06
 Reference value :  2.75026e-06
 Reference value :  2.75045e-06
 Reference value :  2.75087e-06
 Reference value :  2.75177e-06
 Reference value :  2.75222e-06
 Reference value :  2.75350e-06
 Reference value :  2.75399e-06
 Reference value :  2.75517e-06
 Reference value :  2.75592e-06
 Reference value :  2.75752e-06
 Reference value :  2.75964e-06
 Reference value :  2.76165e-06
 Reference value :  2.76697e-06
 Reference value :  2.78042e-06
 Reference value :  2.81584e-06
 Reference value :  2.90858e-06
 Reference value :  3.00001e-06
 Reference value :  3.00003e-06
 Reference value :  3.00007e-06
 Reference value :  3.00010e-06
 Reference value :  3.00011e-06
 Reference value :  3.00012e-06
 Reference value :  3.00016e-06
 Reference value :  3.00022e-06
 Reference value :  3.00053e-06
 Reference value :  3.00088e-06
 Reference value :  3.00163e-06
 Reference value :  3.00210e-06
 Reference value :  3.00258e-06
 Reference value :  3.00308e-06
 Reference value :  3.00364e-06
 Reference value :  3.00420e-06
 Reference value :  3.00521e-06
 Reference value :  3.00642e-06
 Reference value :  3.00813e-06
 Reference value :  3.01015e-06
 Reference value :  3.01203e-06
 Reference value :  3.01305e-06
 Reference value :  3.01375e-06
 Reference value :  3.01448e-06
 Reference value :  3.01539e-06
 Reference value :  3.01625e-06
 Reference value :  3.01716e-06
 Reference value :  3.01812e-06
 Reference value :  3.02100e-06
 Reference value :  3.02648e-06
 Reference value :  3.04047e-06
 Reference value :  3.04727e-06
 Reference value :  3.05437e-06
 Reference value :  3.06090e-06
 Reference value :  3.06579e-06
 Reference value :  3.07061e-06
 Reference value :  3.08175e-06
 Reference value :  3.10319e-06
 Reference value :  3.11349e-06
 Reference value :  3.13642e-06
 Reference value :  3.19484e-06
 Reference value :  3.25010e-06
 Reference value :  3.25013e-06
 Reference value :  3.25020e-06
 Reference value :  3.25022e-06
 Reference value :  3.25045e-06
 Reference value :  3.25087e-06
 Reference value :  3.25177e-06
 Reference value :  3.25280e-06
 Reference value :  3.25352e-06
 Reference value :  3.25402e-06
 Reference value :  3.25516e-06
 Reference value :  3.25585e-06
 Reference value :  3.25804e-06
 Reference value :  3.25995e-06
 Reference value :  3.26644e-06
 Reference value :  3.31600e-06
 Reference value :  3.47889e-06
 Reference value :  3.50001e-06
 Reference value :  3.50007e-06
 Reference value :  3.50010e-06
 Reference value :  3.50011e-06
 Reference value :  3.50016e-06
 Reference value :  3.50034e-06
 Reference value :  3.50088e-06
 Reference value :  3.50164e-06
 Reference value :  3.50259e-06
 Reference value :  3.50308e-06
 Reference value :  3.50421e-06
 Reference value :  3.50576e-06
 Reference value :  3.50642e-06
 Reference value :  3.50804e-06
 Reference value :  3.50991e-06
 Reference value :  3.51108e-06
 Reference value :  3.51476e-06
 Reference value :  3.52410e-06
 Reference value :  3.55106e-06
 Reference value :  3.58467e-06
 Reference value :  3.65190e-06
 Reference value :  3.75011e-06
 Reference value :  3.75017e-06
 Reference value :  3.75021e-06
 Reference value :  3.75022e-06
 Reference value :  3.75032e-06
 Reference value :  3.75063e-06
 Reference value :  3.75136e-06
 Reference value :  3.75177e-06
 Reference value :  3.75280e-06
 Reference value :  3.75350e-06
 Reference value :  3.75400e-06
 Reference value :  3.75518e-06
 Reference value :  3.75670e-06
 Reference value :  3.76010e-06
 Reference value :  3.76281e-06
 Reference value :  3.77484e-06
 Reference value :  3.78952e-06
 Reference value :  3.87266e-06
 Reference value :  4.00000e-06
 Reference value :  4.00003e-06
 Reference value :  4.00007e-06
 Reference value :  4.00011e-06
 Reference value :  4.00016e-06
 Reference value :  4.00034e-06
 Reference value :  4.00089e-06
 Reference value :  4.00164e-06
 Reference value :  4.00259e-06
 Reference value :  4.00308e-06
 Reference value :  4.00365e-06
 Reference value :  4.00420e-06
 Reference value :  4.00528e-06
 Reference value :  4.00586e-06
 Reference value :  4.00675e-06
 Reference value :  4.00758e-06
 Reference value :  4.00920e-06
 Reference value :  4.01119e-06
 Reference value :  4.01269e-06
 Reference value :  4.01399e-06
 Reference value :  4.01524e-06
 Reference value :  4.01650e-06
 Reference value :  4.01909e-06
 Reference value :  4.02260e-06
 Reference value :  4.02926e-06
 Reference value :  4.04655e-06
 Reference value :  4.08858e-06
 Reference value :  4.14738e-06
 Reference value :  4.19920e-06
 Reference value :  4.25011e-06
 Reference value :  4.25013e-06
 Reference value :  4.25017e-06
 Reference value :  4.25020e-06
 Reference value :  4.25021e-06
 Reference value :  4.25022e-06
 Reference value :  4.25032e-06
 Reference value :  4.25061e-06
 Reference value :  4.25111e-06
 Reference value :  4.25151e-06
 Reference value :  4.25195e-06
 Reference value :  4.25306e-06
 Reference value :  4.25375e-06
 Reference value :  4.25427e-06
 Reference value :  4.25487e-06
 Reference value :  4.25615e-06
 Reference value :  4.25839e-06
 Reference value :  4.26344e-06
 Reference value :  4.27714e-06
 Reference value :  4.32468e-06
 Reference value :  4.50000e-06
 Reference value :  4.50003e-06
 Reference value :  4.50010e-06
 Reference value :  4.50012e-06
 Reference value :  4.50022e-06
 Reference value :  4.50057e-06
 Reference value :  4.50096e-06
 Reference value :  4.50138e-06
 Reference value :  4.50185e-06
 Reference value :  4.50242e-06
 Reference value :  4.50349e-06
 Reference value :  4.50408e-06
 Reference value :  4.50473e-06
 Reference value :  4.50548e-06
 Reference value :  4.50606e-06
 Reference value :  4.50679e-06
 Reference value :  4.50770e-06
 Reference value :  4.50858e-06
 Reference value :  4.50962e-06
 Reference value :  4.51059e-06
 Reference value :  4.51193e-06
 Reference value :  4.51593e-06
 Reference value :  4.52590e-06
 Reference value :  4.55554e-06
 Reference value :  4.66842e-06
 Reference value :  4.75011e-06
 Reference value :  4.75013e-06
 Reference value :  4.75020e-06
 Reference value :  4.75022e-06
 Reference value :  4.75032e-06
 Reference value :  4.75042e-06
 Reference value :  4.75061e-06
 Reference value :  4.75111e-06
 Reference value :  4.75151e-06
 Reference value :  4.75195e-06
 Reference value :  4.75240e-06
 Reference value :  4.75306e-06
 Reference value :  4.75373e-06
 Reference value :  4.75425e-06
 Reference value :  4.75485e-06
 Reference value :  4.75616e-06
 Reference value :  4.75692e-06
 Reference value :  4.76064e-06
 Reference value :  4.76799e-06
 Reference value :  4.79325e-06
 Reference value :  4.88089e-06
 Reference value :  5.00000e-06
 Reference value :  5.00001e-06
 Reference value :  5.00007e-06
 Reference value :  5.00011e-06
 Reference value :  5.00012e-06
 Reference value :  5.00016e-06
 Reference value :  5.00034e-06
 Reference value :  5.00096e-06
 Reference value :  5.00185e-06
 Reference value :  5.00242e-06
 Reference value :  5.00294e-06
 Reference value :  5.00348e-06
 Reference value :  5.00407e-06
 Reference value :  5.00468e-06
 Reference value :  5.00519e-06
 Reference value :  5.00575e-06
 Reference value :  5.00650e-06
 Reference value :  5.00878e-06
 Reference value :  5.01066e-06
 Reference value :  5.01214e-06
 Reference value :  5.01373e-06
 Reference value :  5.01492e-06
 Reference value :  5.01619e-06
 Reference value :  5.01728e-06
 Reference value :  5.01973e-06
 Reference value :  5.02154e-06
 Reference value :  5.02346e-06
 Reference value :  5.02680e-06
 Reference value :  5.03958e-06
 Reference value :  5.06726e-06
 Reference value :  5.08287e-06
 Reference value :  5.14723e-06
 Reference value :  5.19985e-06
 Reference value :  5.25011e-06
 Reference value :  5.25013e-06
 Reference value :  5.25020e-06
 Reference value :  5.25022e-06
 Reference value :  5.25026e-06
 Reference value :  5.25032e-06
 Reference value :  5.25061e-06
 Reference value :  5.25079e-06
 Reference value :  5.25152e-06
 Reference value :  5.25196e-06
 Reference value :  5.25309e-06
 Reference value :  5.25377e-06
 Reference value :  5.25430e-06
 Reference value :  5.25547e-06
 Reference value :  5.25624e-06
 Reference value :  5.25706e-06
 Reference value :  5.26087e-06
 Reference value :  5.26867e-06
 Reference value :  5.29654e-06
 Reference value :  5.39960e-06
 Reference value :  5.50001e-06
 Reference value :  5.50003e-06
 Reference value :  5.50010e-06
 Reference value :  5.50012e-06
 Reference value :  5.50022e-06
 Reference value :  5.50057e-06
 Reference value :  5.50096e-06
 Reference value :  5.50185e-06
 Reference value :  5.50242e-06
 Reference value :  5.50294e-06
 Reference value :  5.50348e-06
 Reference value :  5.50407e-06
 Reference value :  5.50473e-06
 Reference value :  5.50548e-06
 Reference value :  5.50606e-06
 Reference value :  5.50769e-06
 Reference value :  5.50858e-06
 Reference value :  5.50962e-06
 Reference value :  5.51058e-06
 Reference value :  5.51192e-06
 Reference value :  5.51588e-06
 Reference value :  5.52575e-06
 Reference value :  5.55479e-06
 Reference value :  5.66507e-06
 Reference value :  5.75011e-06
 Reference value :  5.75013e-06
 Reference value :  5.75020e-06
 Reference value :  5.75022e-06
 Reference value :  5.75026e-06
 Reference value :  5.75042e-06
 Reference value :  5.75061e-06
 Reference value :  5.75082e-06
 Reference value :  5.75111e-06
 Reference value :  5.75151e-06
 Reference value :  5.75195e-06
 Reference value :  5.75240e-06
 Reference value :  5.75306e-06
 Reference value :  5.75373e-06
 Reference value :  5.75425e-06
 Reference value :  5.75485e-06
 Reference value :  5.75617e-06
 Reference value :  5.75693e-06
 Reference value :  5.76065e-06
 Reference value :  5.76802e-06
 Reference value :  5.77700e-06
 Reference value :  5.82302e-06
 Reference value :  6.00000e-06
 Reference value :  6.00003e-06
 Reference value :  6.00010e-06
 Reference value :  6.00012e-06
 Reference value :  6.00022e-06
 Reference value :  6.00057e-06
 Reference value :  6.00138e-06
 Reference value :  6.00241e-06
 Reference value :  6.00348e-06
 Reference value :  6.00468e-06
 Reference value :  6.00518e-06
 Reference value :  6.00650e-06
 Reference value :  6.00877e-06
 Reference value :  6.01066e-06
 Reference value :  6.01213e-06
 Reference value :  6.01373e-06
 Reference value :  6.01492e-06
 Reference value :  6.01727e-06
 Reference value :  6.01973e-06
 Reference value :  6.02153e-06
 Reference value :  6.02677e-06
 Reference value :  6.03738e-06
 Reference value :  6.04298e-06
 Reference value :  6.04798e-06
 Reference value :  6.05912e-06
 Reference value :  6.06555e-06
 Reference value :  6.07980e-06
 Reference value :  6.10420e-06
 Reference value :  6.21695e-06
 Reference value :  6.25011e-06
 Reference value :  6.25017e-06
 Reference value :  6.25021e-06
 Reference value :  6.25026e-06
 Reference value :  6.25042e-06
 Reference value :  6.25079e-06
 Reference value :  6.25152e-06
 Reference value :  6.25242e-06
 Reference value :  6.25373e-06
 Reference value :  6.25427e-06
 Reference value :  6.25543e-06
 Reference value :  6.25623e-06
 Reference value :  6.25868e-06
 Reference value :  6.26881e-06
 Reference value :  6.33027e-06
 Reference value :  6.50000e-06
 Reference value :  6.50003e-06
 Reference value :  6.50010e-06
 Reference value :  6.50012e-06
 Reference value :  6.50022e-06
 Reference value :  6.50057e-06
 Reference value :  6.50138e-06
 Reference value :  6.50241e-06
 Reference value :  6.50294e-06
 Reference value :  6.50347e-06
 Reference value :  6.50469e-06
 Reference value :  6.50545e-06
 Reference value :  6.50603e-06
 Reference value :  6.50772e-06
 Reference value :  6.50966e-06
 Reference value :  6.51202e-06
 Reference value :  6.51612e-06
 Reference value :  6.52641e-06
 Reference value :  6.55787e-06
 Reference value :  6.67680e-06
 Reference value :  6.75011e-06
 Reference value :  6.75017e-06
 Reference value :  6.75021e-06
 Reference value :  6.75026e-06
 Reference value :  6.75032e-06
 Reference value :  6.75061e-06
 Reference value :  6.75111e-06
 Reference value :  6.75151e-06
 Reference value :  6.75240e-06
 Reference value :  6.75306e-06
 Reference value :  6.75425e-06
 Reference value :  6.75485e-06
 Reference value :  6.75616e-06
 Reference value :  6.75770e-06
 Reference value :  6.75867e-06
 Reference value :  6.76153e-06
 Reference value :  6.76658e-06
 Reference value :  6.77810e-06
 Reference value :  6.80583e-06
 Reference value :  6.93617e-06
 Reference value :  7.00001e-06
 Reference value :  7.00007e-06
 Reference value :  7.00011e-06
 Reference value :  7.00016e-06
 Reference value :  7.00022e-06
 Reference value :  7.00057e-06
 Reference value :  7.00138e-06
 Reference value :  7.00241e-06
 Reference value :  7.00294e-06
 Reference value :  7.00349e-06
 Reference value :  7.00474e-06
 Reference value :  7.00530e-06
 Reference value :  7.00662e-06
 Reference value :  7.00739e-06
 Reference value :  7.00849e-06
 Reference value :  7.01062e-06
 Reference value :  7.01285e-06
 Reference value :  7.01370e-06
 Reference value :  7.01548e-06
 Reference value :  7.01742e-06
 Reference value :  7.01843e-06
 Reference value :  7.02133e-06
 Reference value :  7.02652e-06
 Reference value :  7.04515e-06
 Reference value :  7.15329e-06
 Reference value :  7.25010e-06
 Reference value :  7.25013e-06
 Reference value :  7.25017e-06
 Reference value :  7.25021e-06
 Reference value :  7.25026e-06
 Reference value :  7.25032e-06
 Reference value :  7.25061e-06
 Reference value :  7.25079e-06
 Reference value :  7.25110e-06
 Reference value :  7.25152e-06
 Reference value :  7.25242e-06
 Reference value :  7.25376e-06
 Reference value :  7.25429e-06
 Reference value :  7.25545e-06
 Reference value :  7.25621e-06
 Reference value :  7.25854e-06
 Reference value :  7.26081e-06
 Reference value :  7.26848e-06
 Reference value :  7.29593e-06
 Reference value :  7.39706e-06
 Reference value :  7.50001e-06
 Reference value :  7.50007e-06
 Reference value :  7.50010e-06
 Reference value :  7.50012e-06
 Reference value :  7.50022e-06
 Reference value :  7.50034e-06
 Reference value :  7.50096e-06
 Reference value :  7.50185e-06
 Reference value :  7.50241e-06
 Reference value :  7.50347e-06
 Reference value :  7.50468e-06
 Reference value :  7.50545e-06
 Reference value :  7.50603e-06
 Reference value :  7.50772e-06
 Reference value :  7.50859e-06
 Reference value :  7.51062e-06
 Reference value :  7.51201e-06
 Reference value :  7.51608e-06
 Reference value :  7.53737e-06
 Reference value :  7.59709e-06
 Reference value :  7.75011e-06
 Reference value :  7.75013e-06
 Reference value :  7.75020e-06
 Reference value :  7.75026e-06
 Reference value :  7.75042e-06
 Reference value :  7.75061e-06
 Reference value :  7.75111e-06
 Reference value :  7.75151e-06
 Reference value :  7.75240e-06
 Reference value :  7.75306e-06
 Reference value :  7.75374e-06
 Reference value :  7.75426e-06
 Reference value :  7.75485e-06
 Reference value :  7.75616e-06
 Reference value :  7.75771e-06
 Reference value :  7.75879e-06
 Reference value :  7.76180e-06
 Reference value :  7.76706e-06
 Reference value :  7.77958e-06
 Reference value :  7.84112e-06
 Reference value :  7.96357e-06
 Reference value :  8.00001e-06
 Reference value :  8.00007e-06
 Reference value :  8.00011e-06
 Reference value :  8.00016e-06
 Reference value :  8.00034e-06
 Reference value :  8.00057e-06
 Reference value :  8.00096e-06
 Reference value :  8.00185e-06
 Reference value :  8.00294e-06
 Reference value :  8.00350e-06
 Reference value :  8.00409e-06
 Reference value :  8.00530e-06
 Reference value :  8.00663e-06
 Reference value :  8.00820e-06
 Reference value :  8.00974e-06
 Reference value :  8.01159e-06
 Reference value :  8.01495e-06
 Reference value :  8.01641e-06
 Reference value :  8.01784e-06
 Reference value :  8.02240e-06
 Reference value :  8.03700e-06
 Reference value :  8.06857e-06
 Reference value :  8.11933e-06
 Reference value :  8.13337e-06
 Reference value :  8.14901e-06
 Reference value :  8.16995e-06
 Reference value :  8.19570e-06
 Reference value :  8.21939e-06
 Reference value :  8.24812e-06
 Reference value :  8.25010e-06
 Reference value :  8.25011e-06
 Reference value :  8.25017e-06
 Reference value :  8.25020e-06
 Reference value :  8.25022e-06
 Reference value :  8.25026e-06
 Reference value :  8.25045e-06
 Reference value :  8.25083e-06
 Reference value :  8.25160e-06
 Reference value :  8.25251e-06
 Reference value :  8.25324e-06
 Reference value :  8.25395e-06
 Reference value :  8.25484e-06
 Reference value :  8.25580e-06
 Reference value :  8.25845e-06
 Reference value :  8.26023e-06
 Reference value :  8.26703e-06
 Reference value :  8.28992e-06
 Reference value :  8.38147e-06
No. of Data Rows : 1255
ngspice-44 done
