
Note: Compatibility modes selected: hs a


Circuit: ** sch_path: /home/ece/cace/sar-adc-using-sky130-pdk/runs/run_2025-09-12_21-13-28/parameters/dnl/run_0/sar_output_dnl.sch

option SCALE: Scale is set to 1e-06 for instance and model parameters
option SCALE: Scale is set to 1e-06 for instance and model parameters
option SCALE: Scale is set to 1e-06 for instance and model parameters
option SCALE: Scale is set to 1e-06 for instance and model parameters
Doing analysis at TEMP = 27.000000 and TNOM = 27.000000

Using KLU as Direct Linear Solver
Operating point simulation skipped by 'uic',
  now using transient initial conditions.
 Reference value :  1.00000e-12
 Reference value :  1.41466e-12
 Reference value :  1.34182e-11
 Reference value :  1.04785e-10
 Reference value :  4.01451e-10
 Reference value :  1.33789e-09
 Reference value :  4.08373e-09
 Reference value :  6.17072e-09
 Reference value :  8.31608e-09
 Reference value :  1.11375e-08
 Reference value :  1.35601e-08
 Reference value :  2.18447e-08
 Reference value :  3.39272e-08
 Reference value :  6.96647e-08
 Reference value :  2.50100e-07
 Reference value :  2.50170e-07
 Reference value :  2.50223e-07
 Reference value :  2.50407e-07
 Reference value :  2.51035e-07
 Reference value :  2.51911e-07
 Reference value :  2.53667e-07
 Reference value :  2.54810e-07
 Reference value :  2.56995e-07
 Reference value :  2.65874e-07
 Reference value :  5.00000e-07
 Reference value :  5.00108e-07
 Reference value :  5.00518e-07
 Reference value :  5.02312e-07
 Reference value :  5.03938e-07
 Reference value :  5.07767e-07
 Reference value :  5.13194e-07
 Reference value :  5.18439e-07
 Reference value :  5.59454e-07
 Reference value :  7.50170e-07
 Reference value :  7.50448e-07
 Reference value :  7.51567e-07
 Reference value :  7.53359e-07
 Reference value :  7.54453e-07
 Reference value :  7.55631e-07
 Reference value :  7.57324e-07
 Reference value :  7.71924e-07
 Reference value :  9.80977e-07
 Reference value :  1.00007e-06
 Reference value :  1.00016e-06
 Reference value :  1.00052e-06
 Reference value :  1.00182e-06
 Reference value :  1.00332e-06
 Reference value :  1.00521e-06
 Reference value :  1.00748e-06
 Reference value :  1.00976e-06
 Reference value :  1.01390e-06
 Reference value :  1.01716e-06
 Reference value :  1.02662e-06
 Reference value :  1.13795e-06
 Reference value :  1.25017e-06
 Reference value :  1.25032e-06
 Reference value :  1.25151e-06
 Reference value :  1.25379e-06
 Reference value :  1.25647e-06
 Reference value :  1.31465e-06
 Reference value :  1.50007e-06
 Reference value :  1.50034e-06
 Reference value :  1.50182e-06
 Reference value :  1.50391e-06
 Reference value :  1.50719e-06
 Reference value :  1.50982e-06
 Reference value :  1.51426e-06
 Reference value :  1.65303e-06
 Reference value :  1.75017e-06
 Reference value :  1.75022e-06
 Reference value :  1.75070e-06
 Reference value :  1.75205e-06
 Reference value :  1.75386e-06
 Reference value :  1.75500e-06
 Reference value :  1.75646e-06
 Reference value :  1.76146e-06
 Reference value :  1.78688e-06
 Reference value :  2.00000e-06
 Reference value :  2.00010e-06
 Reference value :  2.00022e-06
 Reference value :  2.00086e-06
 Reference value :  2.00231e-06
 Reference value :  2.00332e-06
 Reference value :  2.00449e-06
 Reference value :  2.00584e-06
 Reference value :  2.00836e-06
 Reference value :  2.00975e-06
 Reference value :  2.01278e-06
 Reference value :  2.01496e-06
 Reference value :  2.01716e-06
 Reference value :  2.02138e-06
 Reference value :  2.02620e-06
 Reference value :  2.03332e-06
 Reference value :  2.04204e-06
 Reference value :  2.04909e-06
 Reference value :  2.05659e-06
 Reference value :  2.06732e-06
 Reference value :  2.10912e-06
 Reference value :  2.25011e-06
 Reference value :  2.25021e-06
 Reference value :  2.25045e-06
 Reference value :  2.25151e-06
 Reference value :  2.25326e-06
 Reference value :  2.25433e-06
 Reference value :  2.25640e-06
 Reference value :  2.26544e-06
 Reference value :  2.46903e-06
 Reference value :  2.50007e-06
 Reference value :  2.50016e-06
 Reference value :  2.50086e-06
 Reference value :  2.50223e-06
 Reference value :  2.50379e-06
 Reference value :  2.50604e-06
 Reference value :  2.50746e-06
 Reference value :  2.51032e-06
 Reference value :  2.51516e-06
 Reference value :  2.59373e-06
 Reference value :  2.75017e-06
 Reference value :  2.75032e-06
 Reference value :  2.75101e-06
 Reference value :  2.75202e-06
 Reference value :  2.75378e-06
 Reference value :  2.75490e-06
 Reference value :  2.75628e-06
 Reference value :  2.75894e-06
 Reference value :  2.76713e-06
 Reference value :  2.82097e-06
 Reference value :  3.00001e-06
 Reference value :  3.00010e-06
 Reference value :  3.00022e-06
 Reference value :  3.00086e-06
 Reference value :  3.00231e-06
 Reference value :  3.00334e-06
 Reference value :  3.00457e-06
 Reference value :  3.00575e-06
 Reference value :  3.00817e-06
 Reference value :  3.01043e-06
 Reference value :  3.01263e-06
 Reference value :  3.01536e-06
 Reference value :  3.01738e-06
 Reference value :  3.01981e-06
 Reference value :  3.03650e-06
 Reference value :  3.07112e-06
 Reference value :  3.08968e-06
 Reference value :  3.10987e-06
 Reference value :  3.14834e-06
 Reference value :  3.24254e-06
 Reference value :  3.25013e-06
 Reference value :  3.25021e-06
 Reference value :  3.25032e-06
 Reference value :  3.25101e-06
 Reference value :  3.25202e-06
 Reference value :  3.25326e-06
 Reference value :  3.25439e-06
 Reference value :  3.25560e-06
 Reference value :  3.25928e-06
 Reference value :  3.27237e-06
 Reference value :  3.27969e-06
 Reference value :  3.29855e-06
 Reference value :  3.31531e-06
 Reference value :  3.34218e-06
 Reference value :  3.42510e-06
 Reference value :  3.50000e-06
 Reference value :  3.50007e-06
 Reference value :  3.50016e-06
 Reference value :  3.50052e-06
 Reference value :  3.50131e-06
 Reference value :  3.50223e-06
 Reference value :  3.50322e-06
 Reference value :  3.50442e-06
 Reference value :  3.50604e-06
 Reference value :  3.50673e-06
 Reference value :  3.50840e-06
 Reference value :  3.51032e-06
 Reference value :  3.51273e-06
 Reference value :  3.53600e-06
 Reference value :  3.75010e-06
 Reference value :  3.75017e-06
 Reference value :  3.75026e-06
 Reference value :  3.75070e-06
 Reference value :  3.75150e-06
 Reference value :  3.75326e-06
 Reference value :  3.75490e-06
 Reference value :  3.75627e-06
 Reference value :  3.76018e-06
 Reference value :  3.77310e-06
 Reference value :  3.82014e-06
 Reference value :  4.00000e-06
 Reference value :  4.00007e-06
 Reference value :  4.00012e-06
 Reference value :  4.00034e-06
 Reference value :  4.00086e-06
 Reference value :  4.00231e-06
 Reference value :  4.00334e-06
 Reference value :  4.00457e-06
 Reference value :  4.00575e-06
 Reference value :  4.00817e-06
 Reference value :  4.01043e-06
 Reference value :  4.01263e-06
 Reference value :  4.01437e-06
 Reference value :  4.01535e-06
 Reference value :  4.01737e-06
 Reference value :  4.01979e-06
 Reference value :  4.02648e-06
 Reference value :  4.02936e-06
 Reference value :  4.03158e-06
 Reference value :  4.03549e-06
 Reference value :  4.04312e-06
 Reference value :  4.06224e-06
 Reference value :  4.11489e-06
 Reference value :  4.25010e-06
 Reference value :  4.25013e-06
 Reference value :  4.25021e-06
 Reference value :  4.25032e-06
 Reference value :  4.25101e-06
 Reference value :  4.25150e-06
 Reference value :  4.25251e-06
 Reference value :  4.25378e-06
 Reference value :  4.25497e-06
 Reference value :  4.25769e-06
 Reference value :  4.26535e-06
 Reference value :  4.31449e-06
 Reference value :  4.50001e-06
 Reference value :  4.50010e-06
 Reference value :  4.50012e-06
 Reference value :  4.50022e-06
 Reference value :  4.50052e-06
 Reference value :  4.50131e-06
 Reference value :  4.50231e-06
 Reference value :  4.50333e-06
 Reference value :  4.50549e-06
 Reference value :  4.50718e-06
 Reference value :  4.50982e-06
 Reference value :  4.51425e-06
 Reference value :  4.58118e-06
 Reference value :  4.75013e-06
 Reference value :  4.75022e-06
 Reference value :  4.75070e-06
 Reference value :  4.75150e-06
 Reference value :  4.75325e-06
 Reference value :  4.75437e-06
 Reference value :  4.75626e-06
 Reference value :  4.76088e-06
 Reference value :  4.80441e-06
 Reference value :  5.00001e-06
 Reference value :  5.00010e-06
 Reference value :  5.00016e-06
 Reference value :  5.00086e-06
 Reference value :  5.00231e-06
 Reference value :  5.00332e-06
 Reference value :  5.00449e-06
 Reference value :  5.00584e-06
 Reference value :  5.00836e-06
 Reference value :  5.00976e-06
 Reference value :  5.01278e-06
 Reference value :  5.01611e-06
 Reference value :  5.01946e-06
 Reference value :  5.03128e-06
 Reference value :  5.04151e-06
 Reference value :  5.05358e-06
 Reference value :  5.07533e-06
 Reference value :  5.16895e-06
 Reference value :  5.22471e-06
 Reference value :  5.25011e-06
 Reference value :  5.25022e-06
 Reference value :  5.25070e-06
 Reference value :  5.25150e-06
 Reference value :  5.25325e-06
 Reference value :  5.25378e-06
 Reference value :  5.25496e-06
 Reference value :  5.25646e-06
 Reference value :  5.26181e-06
 Reference value :  5.28626e-06
 Reference value :  5.43530e-06
 Reference value :  5.50003e-06
 Reference value :  5.50011e-06
 Reference value :  5.50022e-06
 Reference value :  5.50052e-06
 Reference value :  5.50131e-06
 Reference value :  5.50231e-06
 Reference value :  5.50333e-06
 Reference value :  5.50455e-06
 Reference value :  5.50639e-06
 Reference value :  5.50719e-06
 Reference value :  5.50890e-06
 Reference value :  5.51088e-06
 Reference value :  5.51876e-06
 Reference value :  5.65256e-06
 Reference value :  5.75013e-06
 Reference value :  5.75021e-06
 Reference value :  5.75045e-06
 Reference value :  5.75150e-06
 Reference value :  5.75251e-06
 Reference value :  5.75377e-06
 Reference value :  5.75490e-06
 Reference value :  5.75626e-06
 Reference value :  5.76088e-06
 Reference value :  5.78139e-06
 Reference value :  6.00000e-06
 Reference value :  6.00007e-06
 Reference value :  6.00012e-06
 Reference value :  6.00034e-06
 Reference value :  6.00131e-06
 Reference value :  6.00278e-06
 Reference value :  6.00390e-06
 Reference value :  6.00449e-06
 Reference value :  6.00584e-06
 Reference value :  6.00836e-06
 Reference value :  6.00976e-06
 Reference value :  6.01278e-06
 Reference value :  6.01496e-06
 Reference value :  6.01716e-06
 Reference value :  6.02138e-06
 Reference value :  6.03147e-06
 Reference value :  6.04124e-06
 Reference value :  6.04989e-06
 Reference value :  6.06014e-06
 Reference value :  6.07966e-06
 Reference value :  6.19537e-06
 Reference value :  6.25013e-06
 Reference value :  6.25021e-06
 Reference value :  6.25032e-06
 Reference value :  6.25070e-06
 Reference value :  6.25150e-06
 Reference value :  6.25251e-06
 Reference value :  6.25375e-06
 Reference value :  6.25493e-06
 Reference value :  6.25779e-06
 Reference value :  6.28461e-06
 Reference value :  6.50000e-06
 Reference value :  6.50010e-06
 Reference value :  6.50022e-06
 Reference value :  6.50086e-06
 Reference value :  6.50223e-06
 Reference value :  6.50322e-06
 Reference value :  6.50521e-06
 Reference value :  6.50673e-06
 Reference value :  6.50839e-06
 Reference value :  6.51145e-06
 Reference value :  6.52480e-06
 Reference value :  6.66494e-06
 Reference value :  6.75013e-06
 Reference value :  6.75021e-06
 Reference value :  6.75045e-06
 Reference value :  6.75150e-06
 Reference value :  6.75325e-06
 Reference value :  6.75436e-06
 Reference value :  6.75548e-06
 Reference value :  6.75711e-06
 Reference value :  6.76017e-06
 Reference value :  6.76706e-06
 Reference value :  6.81939e-06
 Reference value :  7.00000e-06
 Reference value :  7.00007e-06
 Reference value :  7.00016e-06
 Reference value :  7.00052e-06
 Reference value :  7.00182e-06
 Reference value :  7.00334e-06
 Reference value :  7.00518e-06
 Reference value :  7.00641e-06
 Reference value :  7.00817e-06
 Reference value :  7.01042e-06
 Reference value :  7.01262e-06
 Reference value :  7.01433e-06
 Reference value :  7.01644e-06
 Reference value :  7.01872e-06
 Reference value :  7.02434e-06
 Reference value :  7.03718e-06
 Reference value :  7.04920e-06
 Reference value :  7.06112e-06
 Reference value :  7.09034e-06
 Reference value :  7.19784e-06
 Reference value :  7.25013e-06
 Reference value :  7.25021e-06
 Reference value :  7.25045e-06
 Reference value :  7.25150e-06
 Reference value :  7.25325e-06
 Reference value :  7.25438e-06
 Reference value :  7.25559e-06
 Reference value :  7.25926e-06
 Reference value :  7.28639e-06
 Reference value :  7.50000e-06
 Reference value :  7.50010e-06
 Reference value :  7.50022e-06
 Reference value :  7.50086e-06
 Reference value :  7.50231e-06
 Reference value :  7.50333e-06
 Reference value :  7.50549e-06
 Reference value :  7.50718e-06
 Reference value :  7.50889e-06
 Reference value :  7.51087e-06
 Reference value :  7.52765e-06
 Reference value :  7.75010e-06
 Reference value :  7.75020e-06
 Reference value :  7.75032e-06
 Reference value :  7.75101e-06
 Reference value :  7.75202e-06
 Reference value :  7.75325e-06
 Reference value :  7.75436e-06
 Reference value :  7.75548e-06
 Reference value :  7.75877e-06
 Reference value :  7.78126e-06
 Reference value :  8.00001e-06
 Reference value :  8.00011e-06
 Reference value :  8.00034e-06
 Reference value :  8.00131e-06
 Reference value :  8.00278e-06
 Reference value :  8.00390e-06
 Reference value :  8.00584e-06
 Reference value :  8.00836e-06
 Reference value :  8.01141e-06
 Reference value :  8.04100e-06
 Reference value :  8.25013e-06
 Reference value :  8.25022e-06
 Reference value :  8.25045e-06
 Reference value :  8.25150e-06
 Reference value :  8.25324e-06
 Reference value :  8.25602e-06
 Reference value :  8.26021e-06
 Reference value :  8.41108e-06
 Reference value :  8.50000e-06
 Reference value :  8.50000e-06
 Reference value :  8.50008e-06
 Reference value :  8.50014e-06
 Reference value :  8.50072e-06
 Reference value :  8.50217e-06
 Reference value :  8.50323e-06
 Reference value :  8.50448e-06
 Reference value :  8.50554e-06
 Reference value :  8.50830e-06
 Reference value :  8.51896e-06
 Reference value :  8.52438e-06
 Reference value :  8.52878e-06
 Reference value :  8.53196e-06
 Reference value :  8.53708e-06
 Reference value :  8.54141e-06
 Reference value :  8.54910e-06
 Reference value :  8.56445e-06
 Reference value :  8.59817e-06
 Reference value :  8.70925e-06
 Reference value :  8.75013e-06
 Reference value :  8.75022e-06
 Reference value :  8.75070e-06
 Reference value :  8.75150e-06
 Reference value :  8.75324e-06
 Reference value :  8.75437e-06
 Reference value :  8.75555e-06
 Reference value :  8.75916e-06
 Reference value :  8.78562e-06
 Reference value :  9.00000e-06
 Reference value :  9.00007e-06
 Reference value :  9.00012e-06
 Reference value :  9.00035e-06
 Reference value :  9.00131e-06
 Reference value :  9.00278e-06
 Reference value :  9.00390e-06
 Reference value :  9.00636e-06
 Reference value :  9.00891e-06
 Reference value :  9.01329e-06
 Reference value :  9.01637e-06
 Reference value :  9.02574e-06
 Reference value :  9.08915e-06
 Reference value :  9.25011e-06
 Reference value :  9.25020e-06
 Reference value :  9.25032e-06
 Reference value :  9.25150e-06
 Reference value :  9.25325e-06
 Reference value :  9.25489e-06
 Reference value :  9.25711e-06
 Reference value :  9.28129e-06
 Reference value :  9.50000e-06
 Reference value :  9.50007e-06
 Reference value :  9.50012e-06
 Reference value :  9.50034e-06
 Reference value :  9.50086e-06
 Reference value :  9.50182e-06
 Reference value :  9.50278e-06
 Reference value :  9.50390e-06
 Reference value :  9.50584e-06
 Reference value :  9.50838e-06
 Reference value :  9.50977e-06
 Reference value :  9.51279e-06
 Reference value :  9.51611e-06
 Reference value :  9.51944e-06
 Reference value :  9.53184e-06
 Reference value :  9.63763e-06
 Reference value :  9.75013e-06
 Reference value :  9.75022e-06
 Reference value :  9.75045e-06
 Reference value :  9.75150e-06
 Reference value :  9.75325e-06
 Reference value :  9.75438e-06
 Reference value :  9.75559e-06
 Reference value :  9.75926e-06
 Reference value :  9.78641e-06
 Reference value :  1.00000e-05
 Reference value :  1.00001e-05
 Reference value :  1.00001e-05
 Reference value :  1.00003e-05
 Reference value :  1.00013e-05
 Reference value :  1.00028e-05
 Reference value :  1.00039e-05
 Reference value :  1.00055e-05
 Reference value :  1.00072e-05
 Reference value :  1.00098e-05
 Reference value :  1.00188e-05
 Reference value :  1.01524e-05
 Reference value :  1.02502e-05
 Reference value :  1.02503e-05
 Reference value :  1.02510e-05
 Reference value :  1.02520e-05
 Reference value :  1.02533e-05
 Reference value :  1.02544e-05
 Reference value :  1.02555e-05
 Reference value :  1.02588e-05
 Reference value :  1.03044e-05
 Reference value :  1.05000e-05
 Reference value :  1.05001e-05
 Reference value :  1.05002e-05
 Reference value :  1.05009e-05
 Reference value :  1.05023e-05
 Reference value :  1.05033e-05
 Reference value :  1.05052e-05
 Reference value :  1.05065e-05
 Reference value :  1.05098e-05
 Reference value :  1.05128e-05
 Reference value :  1.05150e-05
 Reference value :  1.05172e-05
 Reference value :  1.05214e-05
 Reference value :  1.05291e-05
 Reference value :  1.05377e-05
 Reference value :  1.05455e-05
 Reference value :  1.05527e-05
 Reference value :  1.05623e-05
 Reference value :  1.05918e-05
 Reference value :  1.07501e-05
 Reference value :  1.07502e-05
 Reference value :  1.07503e-05
 Reference value :  1.07510e-05
 Reference value :  1.07520e-05
 Reference value :  1.07538e-05
 Reference value :  1.07549e-05
 Reference value :  1.07578e-05
 Reference value :  1.07846e-05
 Reference value :  1.10000e-05
 Reference value :  1.10001e-05
 Reference value :  1.10002e-05
 Reference value :  1.10009e-05
 Reference value :  1.10022e-05
 Reference value :  1.10038e-05
 Reference value :  1.10060e-05
 Reference value :  1.10075e-05
 Reference value :  1.10103e-05
 Reference value :  1.10151e-05
 Reference value :  1.10539e-05
 Reference value :  1.12501e-05
 Reference value :  1.12502e-05
 Reference value :  1.12507e-05
 Reference value :  1.12515e-05
 Reference value :  1.12533e-05
 Reference value :  1.12544e-05
 Reference value :  1.12563e-05
 Reference value :  1.12589e-05
 Reference value :  1.12671e-05
 Reference value :  1.13197e-05
 Reference value :  1.15000e-05
 Reference value :  1.15001e-05
 Reference value :  1.15003e-05
 Reference value :  1.15013e-05
 Reference value :  1.15028e-05
 Reference value :  1.15039e-05
 Reference value :  1.15058e-05
 Reference value :  1.15082e-05
 Reference value :  1.15115e-05
 Reference value :  1.15135e-05
 Reference value :  1.15154e-05
 Reference value :  1.15186e-05
 Reference value :  1.15238e-05
 Reference value :  1.15490e-05
 Reference value :  1.15719e-05
 Reference value :  1.15905e-05
 Reference value :  1.16043e-05
 Reference value :  1.16417e-05
 Reference value :  1.17030e-05
 Reference value :  1.17501e-05
 Reference value :  1.17502e-05
 Reference value :  1.17504e-05
 Reference value :  1.17515e-05
 Reference value :  1.17532e-05
 Reference value :  1.17544e-05
 Reference value :  1.17556e-05
 Reference value :  1.17593e-05
 Reference value :  1.17723e-05
 Reference value :  1.17985e-05
 Reference value :  1.18158e-05
 Reference value :  1.18323e-05
 Reference value :  1.18680e-05
 Reference value :  1.19655e-05
 Reference value :  1.20000e-05
 Reference value :  1.20001e-05
 Reference value :  1.20002e-05
 Reference value :  1.20009e-05
 Reference value :  1.20017e-05
 Reference value :  1.20032e-05
 Reference value :  1.20044e-05
 Reference value :  1.20060e-05
 Reference value :  1.20074e-05
 Reference value :  1.20093e-05
 Reference value :  1.20126e-05
 Reference value :  1.20367e-05
 Reference value :  1.22501e-05
 Reference value :  1.22502e-05
 Reference value :  1.22503e-05
 Reference value :  1.22507e-05
 Reference value :  1.22515e-05
 Reference value :  1.22525e-05
 Reference value :  1.22538e-05
 Reference value :  1.22549e-05
 Reference value :  1.22563e-05
 Reference value :  1.22589e-05
 Reference value :  1.22671e-05
 Reference value :  1.23672e-05
 Reference value :  1.25000e-05
 Reference value :  1.25001e-05
 Reference value :  1.25005e-05
 Reference value :  1.25018e-05
 Reference value :  1.25033e-05
 Reference value :  1.25046e-05
 Reference value :  1.25058e-05
 Reference value :  1.25082e-05
 Reference value :  1.25104e-05
 Reference value :  1.25126e-05
 Reference value :  1.25153e-05
 Reference value :  1.25185e-05
 Reference value :  1.25269e-05
 Reference value :  1.25325e-05
 Reference value :  1.25387e-05
 Reference value :  1.25512e-05
 Reference value :  1.25867e-05
 Reference value :  1.26305e-05
 Reference value :  1.27501e-05
 Reference value :  1.27501e-05
 Reference value :  1.27502e-05
 Reference value :  1.27502e-05
 Reference value :  1.27504e-05
 Reference value :  1.27510e-05
 Reference value :  1.27515e-05
 Reference value :  1.27525e-05
 Reference value :  1.27538e-05
 Reference value :  1.27550e-05
 Reference value :  1.27577e-05
 Reference value :  1.27724e-05
 Reference value :  1.29832e-05
 Reference value :  1.30000e-05
 Reference value :  1.30001e-05
 Reference value :  1.30002e-05
 Reference value :  1.30009e-05
 Reference value :  1.30018e-05
 Reference value :  1.30028e-05
 Reference value :  1.30039e-05
 Reference value :  1.30055e-05
 Reference value :  1.30072e-05
 Reference value :  1.30089e-05
 Reference value :  1.30109e-05
 Reference value :  1.30276e-05
 Reference value :  1.32501e-05
 Reference value :  1.32502e-05
 Reference value :  1.32502e-05
 Reference value :  1.32504e-05
 Reference value :  1.32510e-05
 Reference value :  1.32515e-05
 Reference value :  1.32525e-05
 Reference value :  1.32538e-05
 Reference value :  1.32549e-05
 Reference value :  1.32563e-05
 Reference value :  1.32641e-05
 Reference value :  1.33503e-05
 Reference value :  1.35000e-05
 Reference value :  1.35001e-05
 Reference value :  1.35003e-05
 Reference value :  1.35013e-05
 Reference value :  1.35023e-05
 Reference value :  1.35033e-05
 Reference value :  1.35052e-05
 Reference value :  1.35065e-05
 Reference value :  1.35098e-05
 Reference value :  1.35128e-05
 Reference value :  1.35150e-05
 Reference value :  1.35172e-05
 Reference value :  1.35214e-05
 Reference value :  1.35357e-05
 Reference value :  1.35408e-05
 Reference value :  1.35489e-05
 Reference value :  1.35575e-05
 Reference value :  1.35686e-05
 Reference value :  1.36169e-05
 Reference value :  1.36669e-05
 Reference value :  1.36933e-05
 Reference value :  1.37269e-05
 Reference value :  1.37501e-05
 Reference value :  1.37502e-05
 Reference value :  1.37503e-05
 Reference value :  1.37507e-05
 Reference value :  1.37515e-05
 Reference value :  1.37525e-05
 Reference value :  1.37533e-05
 Reference value :  1.37538e-05
 Reference value :  1.37550e-05
 Reference value :  1.37565e-05
 Reference value :  1.37653e-05
 Reference value :  1.38705e-05
 Reference value :  1.40000e-05
 Reference value :  1.40001e-05
 Reference value :  1.40003e-05
 Reference value :  1.40013e-05
 Reference value :  1.40028e-05
 Reference value :  1.40039e-05
 Reference value :  1.40055e-05
 Reference value :  1.40072e-05
 Reference value :  1.40089e-05
 Reference value :  1.40109e-05
 Reference value :  1.40187e-05
 Reference value :  1.40812e-05
 Reference value :  1.42501e-05
 Reference value :  1.42502e-05
 Reference value :  1.42503e-05
 Reference value :  1.42504e-05
 Reference value :  1.42510e-05
 Reference value :  1.42515e-05
 Reference value :  1.42525e-05
 Reference value :  1.42533e-05
 Reference value :  1.42538e-05
 Reference value :  1.42549e-05
 Reference value :  1.42563e-05
 Reference value :  1.42588e-05
 Reference value :  1.42698e-05
 Reference value :  1.43043e-05
 Reference value :  1.45000e-05
 Reference value :  1.45001e-05
 Reference value :  1.45001e-05
 Reference value :  1.45002e-05
 Reference value :  1.45009e-05
 Reference value :  1.45018e-05
 Reference value :  1.45028e-05
 Reference value :  1.45033e-05
 Reference value :  1.45045e-05
 Reference value :  1.45058e-05
 Reference value :  1.45084e-05
 Reference value :  1.45098e-05
 Reference value :  1.45128e-05
 Reference value :  1.45150e-05
 Reference value :  1.45172e-05
 Reference value :  1.45214e-05
 Reference value :  1.45311e-05
 Reference value :  1.45358e-05
 Reference value :  1.45459e-05
 Reference value :  1.45629e-05
 Reference value :  1.45859e-05
 Reference value :  1.46615e-05
 Reference value :  1.47501e-05
 Reference value :  1.47502e-05
 Reference value :  1.47503e-05
 Reference value :  1.47510e-05
 Reference value :  1.47520e-05
 Reference value :  1.47538e-05
 Reference value :  1.47549e-05
 Reference value :  1.47578e-05
 Reference value :  1.47652e-05
 Reference value :  1.48105e-05
 Reference value :  1.49658e-05
 Reference value :  1.50000e-05
 Reference value :  1.50001e-05
 Reference value :  1.50001e-05
 Reference value :  1.50002e-05
 Reference value :  1.50003e-05
 Reference value :  1.50009e-05
 Reference value :  1.50017e-05
 Reference value :  1.50032e-05
 Reference value :  1.50044e-05
 Reference value :  1.50060e-05
 Reference value :  1.50067e-05
 Reference value :  1.50084e-05
 Reference value :  1.50103e-05
 Reference value :  1.50127e-05
 Reference value :  1.50247e-05
 Reference value :  1.50905e-05
 Reference value :  1.52501e-05
 Reference value :  1.52502e-05
 Reference value :  1.52503e-05
 Reference value :  1.52507e-05
 Reference value :  1.52515e-05
 Reference value :  1.52533e-05
 Reference value :  1.52544e-05
 Reference value :  1.52555e-05
 Reference value :  1.52571e-05
 Reference value :  1.52602e-05
 Reference value :  1.52731e-05
 Reference value :  1.53667e-05
 Reference value :  1.55007e-05
 Reference value :  1.55028e-05
 Reference value :  1.55041e-05
 Reference value :  1.55047e-05
 Reference value :  1.55058e-05
 Reference value :  1.55081e-05
 Reference value :  1.55105e-05
 Reference value :  1.55126e-05
 Reference value :  1.55144e-05
 Reference value :  1.55165e-05
 Reference value :  1.55189e-05
 Reference value :  1.55244e-05
 Reference value :  1.55300e-05
 Reference value :  1.55358e-05
 Reference value :  1.55451e-05
 Reference value :  1.55568e-05
 Reference value :  1.56087e-05
 Reference value :  1.57501e-05
 Reference value :  1.57501e-05
 Reference value :  1.57502e-05
 Reference value :  1.57504e-05
 Reference value :  1.57515e-05
 Reference value :  1.57532e-05
 Reference value :  1.57544e-05
 Reference value :  1.57550e-05
 Reference value :  1.57565e-05
 Reference value :  1.57618e-05
 Reference value :  1.58147e-05
 Reference value :  1.60000e-05
 Reference value :  1.60001e-05
 Reference value :  1.60002e-05
 Reference value :  1.60009e-05
 Reference value :  1.60023e-05
 Reference value :  1.60033e-05
 Reference value :  1.60055e-05
 Reference value :  1.60072e-05
 Reference value :  1.60089e-05
 Reference value :  1.60120e-05
 Reference value :  1.60454e-05
 Reference value :  1.62501e-05
 Reference value :  1.62502e-05
 Reference value :  1.62504e-05
 Reference value :  1.62515e-05
 Reference value :  1.62525e-05
 Reference value :  1.62538e-05
 Reference value :  1.62549e-05
 Reference value :  1.62563e-05
 Reference value :  1.62609e-05
 Reference value :  1.63041e-05
 Reference value :  1.65000e-05
 Reference value :  1.65001e-05
 Reference value :  1.65001e-05
 Reference value :  1.65002e-05
 Reference value :  1.65003e-05
 Reference value :  1.65009e-05
 Reference value :  1.65018e-05
 Reference value :  1.65028e-05
 Reference value :  1.65033e-05
 Reference value :  1.65045e-05
 Reference value :  1.65058e-05
 Reference value :  1.65075e-05
 Reference value :  1.65092e-05
 Reference value :  1.65103e-05
 Reference value :  1.65178e-05
 Reference value :  1.66322e-05
 Reference value :  1.67501e-05
 Reference value :  1.67502e-05
 Reference value :  1.67504e-05
 Reference value :  1.67515e-05
 Reference value :  1.67532e-05
 Reference value :  1.67550e-05
 Reference value :  1.67570e-05
 Reference value :  1.67602e-05
 Reference value :  1.67775e-05
 Reference value :  1.69111e-05
 Reference value :  1.70000e-05
 Reference value :  1.70000e-05
 Reference value :  1.70000e-05
 Reference value :  1.70000e-05
 Reference value :  1.70001e-05
 Reference value :  1.70002e-05
 Reference value :  1.70007e-05
 Reference value :  1.70017e-05
 Reference value :  1.70027e-05
 Reference value :  1.70039e-05
 Reference value :  1.70050e-05
 Reference value :  1.70062e-05
 Reference value :  1.70132e-05
 Reference value :  1.70244e-05
 Reference value :  1.70288e-05
 Reference value :  1.70320e-05
 Reference value :  1.70371e-05
 Reference value :  1.70432e-05
 Reference value :  1.70581e-05
 Reference value :  1.70848e-05
 Reference value :  1.71688e-05
 Reference value :  1.72501e-05
 Reference value :  1.72502e-05
 Reference value :  1.72503e-05
 Reference value :  1.72510e-05
 Reference value :  1.72520e-05
 Reference value :  1.72532e-05
 Reference value :  1.72538e-05
 Reference value :  1.72549e-05
 Reference value :  1.72576e-05
 Reference value :  1.72650e-05
 Reference value :  1.73129e-05
 Reference value :  1.75000e-05
 Reference value :  1.75001e-05
 Reference value :  1.75001e-05
 Reference value :  1.75003e-05
 Reference value :  1.75009e-05
 Reference value :  1.75018e-05
 Reference value :  1.75028e-05
 Reference value :  1.75033e-05
 Reference value :  1.75045e-05
 Reference value :  1.75064e-05
 Reference value :  1.75076e-05
 Reference value :  1.75102e-05
 Reference value :  1.75133e-05
 Reference value :  1.75164e-05
 Reference value :  1.75258e-05
 Reference value :  1.75891e-05
 Reference value :  1.77501e-05
 Reference value :  1.77502e-05
 Reference value :  1.77503e-05
 Reference value :  1.77507e-05
 Reference value :  1.77515e-05
 Reference value :  1.77525e-05
 Reference value :  1.77538e-05
 Reference value :  1.77549e-05
 Reference value :  1.77563e-05
 Reference value :  1.77609e-05
 Reference value :  1.77813e-05
 Reference value :  1.79419e-05
 Reference value :  1.80010e-05
 Reference value :  1.80040e-05
 Reference value :  1.80059e-05
 Reference value :  1.80076e-05
 Reference value :  1.80098e-05
 Reference value :  1.80114e-05
 Reference value :  1.80126e-05
 Reference value :  1.80150e-05
 Reference value :  1.80172e-05
 Reference value :  1.80196e-05
 Reference value :  1.80261e-05
 Reference value :  1.80745e-05
 Reference value :  1.82501e-05
 Reference value :  1.82502e-05
 Reference value :  1.82502e-05
 Reference value :  1.82504e-05
 Reference value :  1.82510e-05
 Reference value :  1.82515e-05
 Reference value :  1.82525e-05
 Reference value :  1.82537e-05
 Reference value :  1.82549e-05
 Reference value :  1.82565e-05
 Reference value :  1.82591e-05
 Reference value :  1.82720e-05
 Reference value :  1.83709e-05
 Reference value :  1.85000e-05
 Reference value :  1.85001e-05
 Reference value :  1.85001e-05
 Reference value :  1.85003e-05
 Reference value :  1.85009e-05
 Reference value :  1.85018e-05
 Reference value :  1.85028e-05
 Reference value :  1.85033e-05
 Reference value :  1.85045e-05
 Reference value :  1.85064e-05
 Reference value :  1.85072e-05
 Reference value :  1.85089e-05
 Reference value :  1.85109e-05
 Reference value :  1.85187e-05
 Reference value :  1.86516e-05
 Reference value :  1.87501e-05
 Reference value :  1.87502e-05
 Reference value :  1.87503e-05
 Reference value :  1.87510e-05
 Reference value :  1.87515e-05
 Reference value :  1.87525e-05
 Reference value :  1.87538e-05
 Reference value :  1.87549e-05
 Reference value :  1.87563e-05
 Reference value :  1.87641e-05
 Reference value :  1.88497e-05
 Reference value :  1.90000e-05
 Reference value :  1.90001e-05
 Reference value :  1.90005e-05
 Reference value :  1.90018e-05
 Reference value :  1.90033e-05
 Reference value :  1.90052e-05
 Reference value :  1.90065e-05
 Reference value :  1.90098e-05
 Reference value :  1.90113e-05
 Reference value :  1.90128e-05
 Reference value :  1.90139e-05
 Reference value :  1.90161e-05
 Reference value :  1.90172e-05
 Reference value :  1.90214e-05
 Reference value :  1.90262e-05
 Reference value :  1.90337e-05
 Reference value :  1.90381e-05
 Reference value :  1.90426e-05
 Reference value :  1.90461e-05
 Reference value :  1.90533e-05
 Reference value :  1.90627e-05
 Reference value :  1.90738e-05
 Reference value :  1.90927e-05
 Reference value :  1.91842e-05
 Reference value :  1.92501e-05
 Reference value :  1.92502e-05
 Reference value :  1.92502e-05
 Reference value :  1.92503e-05
 Reference value :  1.92507e-05
 Reference value :  1.92515e-05
 Reference value :  1.92525e-05
 Reference value :  1.92538e-05
 Reference value :  1.92549e-05
 Reference value :  1.92578e-05
 Reference value :  1.92717e-05
 Reference value :  1.94659e-05
 Reference value :  1.95006e-05
 Reference value :  1.95024e-05
 Reference value :  1.95035e-05
 Reference value :  1.95048e-05
 Reference value :  1.95066e-05
 Reference value :  1.95085e-05
 Reference value :  1.95105e-05
 Reference value :  1.95130e-05
 Reference value :  1.95385e-05
 Reference value :  1.97501e-05
 Reference value :  1.97502e-05
 Reference value :  1.97504e-05
 Reference value :  1.97515e-05
 Reference value :  1.97532e-05
 Reference value :  1.97549e-05
 Reference value :  1.97562e-05
 Reference value :  1.97601e-05
 Reference value :  1.97804e-05
 Reference value :  2.00000e-05
 Reference value :  2.00001e-05
 Reference value :  2.00002e-05
 Reference value :  2.00005e-05
 Reference value :  2.00013e-05
 Reference value :  2.00023e-05
 Reference value :  2.00033e-05
 Reference value :  2.00046e-05
 Reference value :  2.00058e-05
 Reference value :  2.00082e-05
 Reference value :  2.00104e-05
 Reference value :  2.00126e-05
 Reference value :  2.00144e-05
 Reference value :  2.00154e-05
 Reference value :  2.00174e-05
 Reference value :  2.00198e-05
 Reference value :  2.00282e-05
 Reference value :  2.00602e-05
 Reference value :  2.00718e-05
 Reference value :  2.00895e-05
 Reference value :  2.01181e-05
 Reference value :  2.02224e-05
 Reference value :  2.02502e-05
 Reference value :  2.02504e-05
 Reference value :  2.02515e-05
 Reference value :  2.02533e-05
 Reference value :  2.02544e-05
 Reference value :  2.02556e-05
 Reference value :  2.02618e-05
 Reference value :  2.02998e-05
 Reference value :  2.03273e-05
 Reference value :  2.03494e-05
 Reference value :  2.04211e-05
 Reference value :  2.05006e-05
 Reference value :  2.05023e-05
 Reference value :  2.05040e-05
 Reference value :  2.05075e-05
 Reference value :  2.05136e-05
 Reference value :  2.05887e-05
 Reference value :  2.07502e-05
 Reference value :  2.07504e-05
 Reference value :  2.07515e-05
 Reference value :  2.07538e-05
 Reference value :  2.07555e-05
 Reference value :  2.07579e-05
 Reference value :  2.07670e-05
 Reference value :  2.10000e-05
 Reference value :  2.10001e-05
 Reference value :  2.10009e-05
 Reference value :  2.10028e-05
 Reference value :  2.10046e-05
 Reference value :  2.10058e-05
 Reference value :  2.10082e-05
 Reference value :  2.10104e-05
 Reference value :  2.10126e-05
 Reference value :  2.10144e-05
 Reference value :  2.10153e-05
 Reference value :  2.10174e-05
 Reference value :  2.10198e-05
 Reference value :  2.10264e-05
 Reference value :  2.10291e-05
 Reference value :  2.10331e-05
 Reference value :  2.10392e-05
 Reference value :  2.10631e-05
 Reference value :  2.11198e-05
 Reference value :  2.12501e-05
 Reference value :  2.12502e-05
 Reference value :  2.12503e-05
 Reference value :  2.12510e-05
 Reference value :  2.12520e-05
 Reference value :  2.12533e-05
 Reference value :  2.12544e-05
 Reference value :  2.12550e-05
 Reference value :  2.12577e-05
 Reference value :  2.12724e-05
 Reference value :  2.14832e-05
 Reference value :  2.15001e-05
 Reference value :  2.15002e-05
 Reference value :  2.15009e-05
 Reference value :  2.15023e-05
 Reference value :  2.15033e-05
 Reference value :  2.15055e-05
 Reference value :  2.15072e-05
 Reference value :  2.15098e-05
 Reference value :  2.15276e-05
 Reference value :  2.17501e-05
 Reference value :  2.17502e-05
 Reference value :  2.17503e-05
 Reference value :  2.17510e-05
 Reference value :  2.17525e-05
 Reference value :  2.17538e-05
 Reference value :  2.17555e-05
 Reference value :  2.17609e-05
 Reference value :  2.19423e-05
 Reference value :  2.20011e-05
 Reference value :  2.20043e-05
 Reference value :  2.20063e-05
 Reference value :  2.20090e-05
 Reference value :  2.20105e-05
 Reference value :  2.20134e-05
 Reference value :  2.20156e-05
 Reference value :  2.20178e-05
 Reference value :  2.20220e-05
 Reference value :  2.20367e-05
 Reference value :  2.20465e-05
 Reference value :  2.20552e-05
 Reference value :  2.20709e-05
 Reference value :  2.21178e-05
 Reference value :  2.21364e-05
 Reference value :  2.21775e-05
 Reference value :  2.22086e-05
 Reference value :  2.22501e-05
 Reference value :  2.22502e-05
 Reference value :  2.22503e-05
 Reference value :  2.22510e-05
 Reference value :  2.22520e-05
 Reference value :  2.22537e-05
 Reference value :  2.22554e-05
 Reference value :  2.22573e-05
 Reference value :  2.22644e-05
 Reference value :  2.23618e-05
 Reference value :  2.25000e-05
 Reference value :  2.25001e-05
 Reference value :  2.25002e-05
 Reference value :  2.25009e-05
 Reference value :  2.25023e-05
 Reference value :  2.25033e-05
 Reference value :  2.25055e-05
 Reference value :  2.25072e-05
 Reference value :  2.25089e-05
 Reference value :  2.25142e-05
 Reference value :  2.26524e-05
 Reference value :  2.27502e-05
 Reference value :  2.27503e-05
 Reference value :  2.27507e-05
 Reference value :  2.27515e-05
 Reference value :  2.27525e-05
 Reference value :  2.27538e-05
 Reference value :  2.27549e-05
 Reference value :  2.27563e-05
 Reference value :  2.27609e-05
 Reference value :  2.27814e-05
 Reference value :  2.29425e-05
 Reference value :  2.30011e-05
 Reference value :  2.30043e-05
 Reference value :  2.30062e-05
 Reference value :  2.30090e-05
 Reference value :  2.30120e-05
 Reference value :  2.30145e-05
 Reference value :  2.30167e-05
 Reference value :  2.30189e-05
 Reference value :  2.30219e-05
 Reference value :  2.30365e-05
 Reference value :  2.30467e-05
 Reference value :  2.30639e-05
 Reference value :  2.31021e-05
 Reference value :  2.32157e-05
 Reference value :  2.32501e-05
 Reference value :  2.32502e-05
 Reference value :  2.32504e-05
 Reference value :  2.32515e-05
 Reference value :  2.32532e-05
 Reference value :  2.32542e-05
 Reference value :  2.32553e-05
 Reference value :  2.32588e-05
 Reference value :  2.32701e-05
 Reference value :  2.34524e-05
 Reference value :  2.35000e-05
 Reference value :  2.35001e-05
 Reference value :  2.35002e-05
 Reference value :  2.35009e-05
 Reference value :  2.35017e-05
 Reference value :  2.35032e-05
 Reference value :  2.35044e-05
 Reference value :  2.35052e-05
 Reference value :  2.35067e-05
 Reference value :  2.35084e-05
 Reference value :  2.35114e-05
 Reference value :  2.35248e-05
 Reference value :  2.37501e-05
 Reference value :  2.37502e-05
 Reference value :  2.37503e-05
 Reference value :  2.37507e-05
 Reference value :  2.37520e-05
 Reference value :  2.37538e-05
 Reference value :  2.37549e-05
 Reference value :  2.37571e-05
 Reference value :  2.37602e-05
 Reference value :  2.37730e-05
 Reference value :  2.38653e-05
 Reference value :  2.40001e-05
 Reference value :  2.40002e-05
 Reference value :  2.40009e-05
 Reference value :  2.40023e-05
 Reference value :  2.40039e-05
 Reference value :  2.40058e-05
 Reference value :  2.40093e-05
 Reference value :  2.40126e-05
 Reference value :  2.40143e-05
 Reference value :  2.40187e-05
 Reference value :  2.40213e-05
 Reference value :  2.40266e-05
 Reference value :  2.40346e-05
 Reference value :  2.40642e-05
 Reference value :  2.41748e-05
 Reference value :  2.42501e-05
 Reference value :  2.42502e-05
 Reference value :  2.42507e-05
 Reference value :  2.42515e-05
 Reference value :  2.42532e-05
 Reference value :  2.42544e-05
 Reference value :  2.42556e-05
 Reference value :  2.42618e-05
 Reference value :  2.43145e-05
 Reference value :  2.45000e-05
 Reference value :  2.45001e-05
 Reference value :  2.45002e-05
 Reference value :  2.45005e-05
 Reference value :  2.45018e-05
 Reference value :  2.45033e-05
 Reference value :  2.45055e-05
 Reference value :  2.45072e-05
 Reference value :  2.45089e-05
 Reference value :  2.45109e-05
 Reference value :  2.45277e-05
 Reference value :  2.47501e-05
 Reference value :  2.47502e-05
 Reference value :  2.47502e-05
 Reference value :  2.47504e-05
 Reference value :  2.47515e-05
 Reference value :  2.47525e-05
 Reference value :  2.47538e-05
 Reference value :  2.47549e-05
 Reference value :  2.47563e-05
 Reference value :  2.47609e-05
 Reference value :  2.48042e-05
 Reference value :  2.50000e-05
 Reference value :  2.50001e-05
 Reference value :  2.50002e-05
 Reference value :  2.50005e-05
 Reference value :  2.50018e-05
 Reference value :  2.50033e-05
 Reference value :  2.50052e-05
 Reference value :  2.50065e-05
 Reference value :  2.50092e-05
 Reference value :  2.50137e-05
 Reference value :  2.50714e-05
 Reference value :  2.52501e-05
 Reference value :  2.52502e-05
 Reference value :  2.52503e-05
 Reference value :  2.52507e-05
 Reference value :  2.52515e-05
 Reference value :  2.52532e-05
 Reference value :  2.52560e-05
 Reference value :  2.52632e-05
 Reference value :  2.53347e-05
 Reference value :  2.55000e-05
 Reference value :  2.55000e-05
 Reference value :  2.55000e-05
 Reference value :  2.55000e-05
 Reference value :  2.55001e-05
 Reference value :  2.55002e-05
 Reference value :  2.55012e-05
 Reference value :  2.55022e-05
 Reference value :  2.55032e-05
 Reference value :  2.55050e-05
 Reference value :  2.55062e-05
 Reference value :  2.55132e-05
 Reference value :  2.55244e-05
 Reference value :  2.55288e-05
 Reference value :  2.55320e-05
 Reference value :  2.55371e-05
 Reference value :  2.55412e-05
 Reference value :  2.55486e-05
 Reference value :  2.55580e-05
 Reference value :  2.55866e-05
 Reference value :  2.56786e-05
 Reference value :  2.57501e-05
 Reference value :  2.57502e-05
 Reference value :  2.57503e-05
 Reference value :  2.57504e-05
 Reference value :  2.57510e-05
 Reference value :  2.57515e-05
 Reference value :  2.57525e-05
 Reference value :  2.57538e-05
 Reference value :  2.57556e-05
 Reference value :  2.57616e-05
 Reference value :  2.58677e-05
 Reference value :  2.60000e-05
 Reference value :  2.60001e-05
 Reference value :  2.60003e-05
 Reference value :  2.60013e-05
 Reference value :  2.60028e-05
 Reference value :  2.60039e-05
 Reference value :  2.60064e-05
 Reference value :  2.60076e-05
 Reference value :  2.60102e-05
 Reference value :  2.60133e-05
 Reference value :  2.60148e-05
 Reference value :  2.60213e-05
 Reference value :  2.60424e-05
 Reference value :  2.61494e-05
 Reference value :  2.62502e-05
 Reference value :  2.62503e-05
 Reference value :  2.62510e-05
 Reference value :  2.62515e-05
 Reference value :  2.62525e-05
 Reference value :  2.62538e-05
 Reference value :  2.62549e-05
 Reference value :  2.62563e-05
 Reference value :  2.62641e-05
 Reference value :  2.64418e-05
 Reference value :  2.65010e-05
 Reference value :  2.65029e-05
 Reference value :  2.65040e-05
 Reference value :  2.65050e-05
 Reference value :  2.65059e-05
 Reference value :  2.65067e-05
 Reference value :  2.65086e-05
 Reference value :  2.65114e-05
 Reference value :  2.65126e-05
 Reference value :  2.65150e-05
 Reference value :  2.65173e-05
 Reference value :  2.65214e-05
 Reference value :  2.65310e-05
 Reference value :  2.65747e-05
 Reference value :  2.67501e-05
 Reference value :  2.67502e-05
 Reference value :  2.67507e-05
 Reference value :  2.67520e-05
 Reference value :  2.67537e-05
 Reference value :  2.67555e-05
 Reference value :  2.67592e-05
 Reference value :  2.67862e-05
 Reference value :  2.70000e-05
 Reference value :  2.70001e-05
 Reference value :  2.70005e-05
 Reference value :  2.70018e-05
 Reference value :  2.70033e-05
 Reference value :  2.70055e-05
 Reference value :  2.70072e-05
 Reference value :  2.70089e-05
 Reference value :  2.70120e-05
 Reference value :  2.70453e-05
 Reference value :  2.72501e-05
 Reference value :  2.72502e-05
 Reference value :  2.72502e-05
 Reference value :  2.72504e-05
 Reference value :  2.72510e-05
 Reference value :  2.72515e-05
 Reference value :  2.72525e-05
 Reference value :  2.72538e-05
 Reference value :  2.72549e-05
 Reference value :  2.72563e-05
 Reference value :  2.72609e-05
 Reference value :  2.73041e-05
 Reference value :  2.75000e-05
 Reference value :  2.75001e-05
 Reference value :  2.75002e-05
 Reference value :  2.75003e-05
 Reference value :  2.75009e-05
 Reference value :  2.75023e-05
 Reference value :  2.75033e-05
 Reference value :  2.75052e-05
 Reference value :  2.75058e-05
 Reference value :  2.75075e-05
 Reference value :  2.75098e-05
 Reference value :  2.75128e-05
 Reference value :  2.75139e-05
 Reference value :  2.75161e-05
 Reference value :  2.75182e-05
 Reference value :  2.75231e-05
 Reference value :  2.75292e-05
 Reference value :  2.75385e-05
 Reference value :  2.75431e-05
 Reference value :  2.75466e-05
 Reference value :  2.75539e-05
 Reference value :  2.75634e-05
 Reference value :  2.75744e-05
 Reference value :  2.76095e-05
 Reference value :  2.76823e-05
 Reference value :  2.77501e-05
 Reference value :  2.77502e-05
 Reference value :  2.77502e-05
 Reference value :  2.77504e-05
 Reference value :  2.77515e-05
 Reference value :  2.77525e-05
 Reference value :  2.77538e-05
 Reference value :  2.77549e-05
 Reference value :  2.77578e-05
 Reference value :  2.77717e-05
 Reference value :  2.79660e-05
 Reference value :  2.80006e-05
 Reference value :  2.80023e-05
 Reference value :  2.80035e-05
 Reference value :  2.80048e-05
 Reference value :  2.80066e-05
 Reference value :  2.80085e-05
 Reference value :  2.80105e-05
 Reference value :  2.80130e-05
 Reference value :  2.80260e-05
 Reference value :  2.81106e-05
 Reference value :  2.82501e-05
 Reference value :  2.82502e-05
 Reference value :  2.82503e-05
 Reference value :  2.82510e-05
 Reference value :  2.82520e-05
 Reference value :  2.82532e-05
 Reference value :  2.82543e-05
 Reference value :  2.82549e-05
 Reference value :  2.82571e-05
 Reference value :  2.82601e-05
 Reference value :  2.82668e-05
 Reference value :  2.82939e-05
 Reference value :  2.85000e-05
 Reference value :  2.85001e-05
 Reference value :  2.85003e-05
 Reference value :  2.85013e-05
 Reference value :  2.85028e-05
 Reference value :  2.85039e-05
 Reference value :  2.85058e-05
 Reference value :  2.85082e-05
 Reference value :  2.85115e-05
 Reference value :  2.85144e-05
 Reference value :  2.85164e-05
 Reference value :  2.85198e-05
 Reference value :  2.85368e-05
 Reference value :  2.85720e-05
 Reference value :  2.85879e-05
 Reference value :  2.86128e-05
 Reference value :  2.87497e-05
 Reference value :  2.87502e-05
 Reference value :  2.87504e-05
 Reference value :  2.87515e-05
 Reference value :  2.87533e-05
 Reference value :  2.87544e-05
 Reference value :  2.87556e-05
 Reference value :  2.87653e-05
 Reference value :  2.88182e-05
 Reference value :  2.88410e-05
 Reference value :  2.88635e-05
 Reference value :  2.89044e-05
 Reference value :  2.90005e-05
 Reference value :  2.90022e-05
 Reference value :  2.90033e-05
 Reference value :  2.90045e-05
 Reference value :  2.90063e-05
 Reference value :  2.90079e-05
 Reference value :  2.90097e-05
 Reference value :  2.90142e-05
 Reference value :  2.90421e-05
 Reference value :  2.92501e-05
 Reference value :  2.92502e-05
 Reference value :  2.92502e-05
 Reference value :  2.92504e-05
 Reference value :  2.92515e-05
 Reference value :  2.92533e-05
 Reference value :  2.92544e-05
 Reference value :  2.92555e-05
 Reference value :  2.92571e-05
 Reference value :  2.92602e-05
 Reference value :  2.92730e-05
 Reference value :  2.93650e-05
 Reference value :  2.95000e-05
 Reference value :  2.95001e-05
 Reference value :  2.95003e-05
 Reference value :  2.95013e-05
 Reference value :  2.95028e-05
 Reference value :  2.95039e-05
 Reference value :  2.95058e-05
 Reference value :  2.95082e-05
 Reference value :  2.95104e-05
 Reference value :  2.95126e-05
 Reference value :  2.95144e-05
 Reference value :  2.95164e-05
 Reference value :  2.95185e-05
 Reference value :  2.95237e-05
 Reference value :  2.95265e-05
 Reference value :  2.95316e-05
 Reference value :  2.95386e-05
 Reference value :  2.95678e-05
 Reference value :  2.96056e-05
 Reference value :  2.97137e-05
 Reference value :  2.97501e-05
 Reference value :  2.97502e-05
 Reference value :  2.97503e-05
 Reference value :  2.97510e-05
 Reference value :  2.97520e-05
 Reference value :  2.97533e-05
 Reference value :  2.97538e-05
 Reference value :  2.97550e-05
 Reference value :  2.97577e-05
 Reference value :  2.97653e-05
 Reference value :  2.98145e-05
 Reference value :  3.00000e-05
 Reference value :  3.00001e-05
 Reference value :  3.00001e-05
 Reference value :  3.00003e-05
 Reference value :  3.00013e-05
 Reference value :  3.00028e-05
 Reference value :  3.00039e-05
 Reference value :  3.00064e-05
 Reference value :  3.00072e-05
 Reference value :  3.00089e-05
 Reference value :  3.00187e-05
 Reference value :  3.02501e-05
 Reference value :  3.02502e-05
 Reference value :  3.02504e-05
 Reference value :  3.02515e-05
 Reference value :  3.02533e-05
 Reference value :  3.02544e-05
 Reference value :  3.02563e-05
 Reference value :  3.02814e-05
 Reference value :  3.05011e-05
 Reference value :  3.05043e-05
 Reference value :  3.05071e-05
 Reference value :  3.05105e-05
 Reference value :  3.05134e-05
 Reference value :  3.05145e-05
 Reference value :  3.05178e-05
 Reference value :  3.05219e-05
 Reference value :  3.05371e-05
 Reference value :  3.05469e-05
 Reference value :  3.05606e-05
 Reference value :  3.05862e-05
 Reference value :  3.06517e-05
 Reference value :  3.06705e-05
 Reference value :  3.07184e-05
 Reference value :  3.07502e-05
 Reference value :  3.07507e-05
 Reference value :  3.07520e-05
 Reference value :  3.07532e-05
 Reference value :  3.07537e-05
 Reference value :  3.07548e-05
 Reference value :  3.07564e-05
 Reference value :  3.07611e-05
 Reference value :  3.07839e-05
 Reference value :  3.09659e-05
 Reference value :  3.10000e-05
 Reference value :  3.10001e-05
 Reference value :  3.10002e-05
 Reference value :  3.10009e-05
 Reference value :  3.10018e-05
 Reference value :  3.10028e-05
 Reference value :  3.10039e-05
 Reference value :  3.10055e-05
 Reference value :  3.10072e-05
 Reference value :  3.10089e-05
 Reference value :  3.10109e-05
 Reference value :  3.10277e-05
 Reference value :  3.12501e-05
 Reference value :  3.12502e-05
 Reference value :  3.12502e-05
 Reference value :  3.12504e-05
 Reference value :  3.12510e-05
 Reference value :  3.12520e-05
 Reference value :  3.12533e-05
 Reference value :  3.12538e-05
 Reference value :  3.12549e-05
 Reference value :  3.12563e-05
 Reference value :  3.12609e-05
 Reference value :  3.12814e-05
 Reference value :  3.14427e-05
 Reference value :  3.15000e-05
 Reference value :  3.15001e-05
 Reference value :  3.15003e-05
 Reference value :  3.15013e-05
 Reference value :  3.15028e-05
 Reference value :  3.15033e-05
 Reference value :  3.15045e-05
 Reference value :  3.15058e-05
 Reference value :  3.15084e-05
 Reference value :  3.15098e-05
 Reference value :  3.15128e-05
 Reference value :  3.15139e-05
 Reference value :  3.15161e-05
 Reference value :  3.15182e-05
 Reference value :  3.15231e-05
 Reference value :  3.15363e-05
 Reference value :  3.15460e-05
 Reference value :  3.15564e-05
 Reference value :  3.15759e-05
 Reference value :  3.15983e-05
 Reference value :  3.17092e-05
 Reference value :  3.17501e-05
 Reference value :  3.17502e-05
 Reference value :  3.17503e-05
 Reference value :  3.17504e-05
 Reference value :  3.17510e-05
 Reference value :  3.17520e-05
 Reference value :  3.17532e-05
 Reference value :  3.17538e-05
 Reference value :  3.17549e-05
 Reference value :  3.17564e-05
 Reference value :  3.17592e-05
 Reference value :  3.17717e-05
 Reference value :  3.18623e-05
 Reference value :  3.20000e-05
 Reference value :  3.20001e-05
 Reference value :  3.20001e-05
 Reference value :  3.20002e-05
 Reference value :  3.20005e-05
 Reference value :  3.20013e-05
 Reference value :  3.20022e-05
 Reference value :  3.20032e-05
 Reference value :  3.20044e-05
 Reference value :  3.20060e-05
 Reference value :  3.20067e-05
 Reference value :  3.20084e-05
 Reference value :  3.20103e-05
 Reference value :  3.20114e-05
 Reference value :  3.20185e-05
 Reference value :  3.20541e-05
 Reference value :  3.22501e-05
 Reference value :  3.22502e-05
 Reference value :  3.22503e-05
 Reference value :  3.22507e-05
 Reference value :  3.22515e-05
 Reference value :  3.22533e-05
 Reference value :  3.22538e-05
 Reference value :  3.22549e-05
 Reference value :  3.22563e-05
 Reference value :  3.22579e-05
 Reference value :  3.22602e-05
 Reference value :  3.22641e-05
 Reference value :  3.22731e-05
 Reference value :  3.23197e-05
 Reference value :  3.25000e-05
 Reference value :  3.25001e-05
 Reference value :  3.25001e-05
 Reference value :  3.25002e-05
 Reference value :  3.25009e-05
 Reference value :  3.25018e-05
 Reference value :  3.25028e-05
 Reference value :  3.25039e-05
 Reference value :  3.25052e-05
 Reference value :  3.25058e-05
 Reference value :  3.25073e-05
 Reference value :  3.25093e-05
 Reference value :  3.25115e-05
 Reference value :  3.25135e-05
 Reference value :  3.25153e-05
 Reference value :  3.25172e-05
 Reference value :  3.25182e-05
 Reference value :  3.25209e-05
 Reference value :  3.25284e-05
 Reference value :  3.25808e-05
 Reference value :  3.27501e-05
 Reference value :  3.27502e-05
 Reference value :  3.27503e-05
 Reference value :  3.27510e-05
 Reference value :  3.27520e-05
 Reference value :  3.27532e-05
 Reference value :  3.27544e-05
 Reference value :  3.27556e-05
 Reference value :  3.27618e-05
 Reference value :  3.28145e-05
 Reference value :  3.30000e-05
 Reference value :  3.30001e-05
 Reference value :  3.30002e-05
 Reference value :  3.30005e-05
 Reference value :  3.30013e-05
 Reference value :  3.30023e-05
 Reference value :  3.30033e-05
 Reference value :  3.30055e-05
 Reference value :  3.30072e-05
 Reference value :  3.30089e-05
 Reference value :  3.30109e-05
 Reference value :  3.30276e-05
 Reference value :  3.32501e-05
 Reference value :  3.32502e-05
 Reference value :  3.32502e-05
 Reference value :  3.32504e-05
 Reference value :  3.32515e-05
 Reference value :  3.32525e-05
 Reference value :  3.32538e-05
 Reference value :  3.32549e-05
 Reference value :  3.32563e-05
 Reference value :  3.32609e-05
 Reference value :  3.32813e-05
 Reference value :  3.35000e-05
 Reference value :  3.35010e-05
 Reference value :  3.35040e-05
 Reference value :  3.35059e-05
 Reference value :  3.35076e-05
 Reference value :  3.35094e-05
 Reference value :  3.35114e-05
 Reference value :  3.35486e-05
 Reference value :  3.37040e-05
 Reference value :  3.37501e-05
 Reference value :  3.37502e-05
 Reference value :  3.37503e-05
 Reference value :  3.37507e-05
 Reference value :  3.37515e-05
 Reference value :  3.37525e-05
 Reference value :  3.37540e-05
 Reference value :  3.37558e-05
 Reference value :  3.37582e-05
 Reference value :  3.37627e-05
 Reference value :  3.37911e-05
 Reference value :  3.40000e-05
 Reference value :  3.40000e-05
 Reference value :  3.40000e-05
 Reference value :  3.40000e-05
 Reference value :  3.40000e-05
 Reference value :  3.40001e-05
 Reference value :  3.40001e-05
 Reference value :  3.40002e-05
 Reference value :  3.40007e-05
 Reference value :  3.40017e-05
 Reference value :  3.40027e-05
 Reference value :  3.40032e-05
 Reference value :  3.40045e-05
 Reference value :  3.40050e-05
 Reference value :  3.40062e-05
 Reference value :  3.40190e-05
 Reference value :  3.40244e-05
 Reference value :  3.40288e-05
 Reference value :  3.40320e-05
 Reference value :  3.40371e-05
 Reference value :  3.40411e-05
 Reference value :  3.40486e-05
 Reference value :  3.40651e-05
 Reference value :  3.40877e-05
 Reference value :  3.41362e-05
 Reference value :  3.42501e-05
 Reference value :  3.42502e-05
 Reference value :  3.42503e-05
 Reference value :  3.42507e-05
 Reference value :  3.42515e-05
 Reference value :  3.42532e-05
 Reference value :  3.42544e-05
 Reference value :  3.42556e-05
 Reference value :  3.42616e-05
 Reference value :  3.43130e-05
 Reference value :  3.45000e-05
 Reference value :  3.45001e-05
 Reference value :  3.45002e-05
 Reference value :  3.45009e-05
 Reference value :  3.45023e-05
 Reference value :  3.45033e-05
 Reference value :  3.45055e-05
 Reference value :  3.45076e-05
 Reference value :  3.45115e-05
 Reference value :  3.45148e-05
 Reference value :  3.45258e-05
 Reference value :  3.45891e-05
 Reference value :  3.47501e-05
 Reference value :  3.47502e-05
 Reference value :  3.47507e-05
 Reference value :  3.47520e-05
 Reference value :  3.47538e-05
 Reference value :  3.47549e-05
 Reference value :  3.47563e-05
 Reference value :  3.47641e-05
 Reference value :  3.48501e-05
 Reference value :  3.50000e-05
 Reference value :  3.50001e-05
 Reference value :  3.50002e-05
 Reference value :  3.50009e-05
 Reference value :  3.50023e-05
 Reference value :  3.50033e-05
 Reference value :  3.50052e-05
 Reference value :  3.50065e-05
 Reference value :  3.50098e-05
 Reference value :  3.50128e-05
 Reference value :  3.50150e-05
 Reference value :  3.50171e-05
 Reference value :  3.50213e-05
 Reference value :  3.50549e-05
 Reference value :  3.52160e-05
 Reference value :  3.52502e-05
 Reference value :  3.52503e-05
 Reference value :  3.52507e-05
 Reference value :  3.52515e-05
 Reference value :  3.52533e-05
 Reference value :  3.52538e-05
 Reference value :  3.52550e-05
 Reference value :  3.52565e-05
 Reference value :  3.52618e-05
 Reference value :  3.52864e-05
 Reference value :  3.54833e-05
 Reference value :  3.55000e-05
 Reference value :  3.55001e-05
 Reference value :  3.55002e-05
 Reference value :  3.55005e-05
 Reference value :  3.55013e-05
 Reference value :  3.55023e-05
 Reference value :  3.55033e-05
 Reference value :  3.55046e-05
 Reference value :  3.55064e-05
 Reference value :  3.55072e-05
 Reference value :  3.55089e-05
 Reference value :  3.55109e-05
 Reference value :  3.55188e-05
 Reference value :  3.55811e-05
 Reference value :  3.57501e-05
 Reference value :  3.57502e-05
 Reference value :  3.57502e-05
 Reference value :  3.57503e-05
 Reference value :  3.57507e-05
 Reference value :  3.57515e-05
 Reference value :  3.57525e-05
 Reference value :  3.57533e-05
 Reference value :  3.57538e-05
 Reference value :  3.57549e-05
 Reference value :  3.57563e-05
 Reference value :  3.57588e-05
 Reference value :  3.57699e-05
 Reference value :  3.58505e-05
 Reference value :  3.60011e-05
 Reference value :  3.60043e-05
 Reference value :  3.60062e-05
 Reference value :  3.60090e-05
 Reference value :  3.60120e-05
 Reference value :  3.60145e-05
 Reference value :  3.60178e-05
 Reference value :  3.60219e-05
 Reference value :  3.60353e-05
 Reference value :  3.60447e-05
 Reference value :  3.60517e-05
 Reference value :  3.60603e-05
 Reference value :  3.60778e-05
 Reference value :  3.61416e-05
 Reference value :  3.62501e-05
 Reference value :  3.62502e-05
 Reference value :  3.62503e-05
 Reference value :  3.62510e-05
 Reference value :  3.62520e-05
 Reference value :  3.62537e-05
 Reference value :  3.62548e-05
 Reference value :  3.62588e-05
 Reference value :  3.62822e-05
 Reference value :  3.65000e-05
 Reference value :  3.65001e-05
 Reference value :  3.65001e-05
 Reference value :  3.65005e-05
 Reference value :  3.65017e-05
 Reference value :  3.65032e-05
 Reference value :  3.65044e-05
 Reference value :  3.65052e-05
 Reference value :  3.65067e-05
 Reference value :  3.65094e-05
 Reference value :  3.65151e-05
 Reference value :  3.65911e-05
 Reference value :  3.67501e-05
 Reference value :  3.67502e-05
 Reference value :  3.67510e-05
 Reference value :  3.67525e-05
 Reference value :  3.67538e-05
 Reference value :  3.67549e-05
 Reference value :  3.67563e-05
 Reference value :  3.67589e-05
 Reference value :  3.67671e-05
 Reference value :  3.68191e-05
 Reference value :  3.70000e-05
 Reference value :  3.70001e-05
 Reference value :  3.70002e-05
 Reference value :  3.70005e-05
 Reference value :  3.70013e-05
 Reference value :  3.70023e-05
 Reference value :  3.70033e-05
 Reference value :  3.70052e-05
 Reference value :  3.70064e-05
 Reference value :  3.70093e-05
 Reference value :  3.70115e-05
 Reference value :  3.70126e-05
 Reference value :  3.70144e-05
 Reference value :  3.70154e-05
 Reference value :  3.70174e-05
 Reference value :  3.70198e-05
 Reference value :  3.70368e-05
 Reference value :  3.70709e-05
 Reference value :  3.70803e-05
 Reference value :  3.70852e-05
 Reference value :  3.71015e-05
 Reference value :  3.71518e-05
 Reference value :  3.72501e-05
 Reference value :  3.72502e-05
 Reference value :  3.72502e-05
 Reference value :  3.72504e-05
 Reference value :  3.72515e-05
 Reference value :  3.72533e-05
 Reference value :  3.72544e-05
 Reference value :  3.72556e-05
 Reference value :  3.72618e-05
 Reference value :  3.73033e-05
 Reference value :  3.73372e-05
 Reference value :  3.73606e-05
 Reference value :  3.73851e-05
 Reference value :  3.74607e-05
 Reference value :  3.75001e-05
 Reference value :  3.75002e-05
 Reference value :  3.75005e-05
 Reference value :  3.75013e-05
 Reference value :  3.75022e-05
 Reference value :  3.75032e-05
 Reference value :  3.75044e-05
 Reference value :  3.75060e-05
 Reference value :  3.75067e-05
 Reference value :  3.75084e-05
 Reference value :  3.75114e-05
 Reference value :  3.75185e-05
 Reference value :  3.75566e-05
 Reference value :  3.77501e-05
 Reference value :  3.77501e-05
 Reference value :  3.77502e-05
 Reference value :  3.77503e-05
 Reference value :  3.77510e-05
 Reference value :  3.77520e-05
 Reference value :  3.77533e-05
 Reference value :  3.77538e-05
 Reference value :  3.77549e-05
 Reference value :  3.77563e-05
 Reference value :  3.77589e-05
 Reference value :  3.77641e-05
 Reference value :  3.77958e-05
 Reference value :  3.80000e-05
 Reference value :  3.80001e-05
 Reference value :  3.80001e-05
 Reference value :  3.80003e-05
 Reference value :  3.80009e-05
 Reference value :  3.80018e-05
 Reference value :  3.80028e-05
 Reference value :  3.80033e-05
 Reference value :  3.80046e-05
 Reference value :  3.80058e-05
 Reference value :  3.80073e-05
 Reference value :  3.80093e-05
 Reference value :  3.80115e-05
 Reference value :  3.80135e-05
 Reference value :  3.80153e-05
 Reference value :  3.80174e-05
 Reference value :  3.80198e-05
 Reference value :  3.80237e-05
 Reference value :  3.80259e-05
 Reference value :  3.80281e-05
 Reference value :  3.80298e-05
 Reference value :  3.80336e-05
 Reference value :  3.80440e-05
 Reference value :  3.80749e-05
 Reference value :  3.81196e-05
 Reference value :  3.82501e-05
 Reference value :  3.82502e-05
 Reference value :  3.82502e-05
 Reference value :  3.82504e-05
 Reference value :  3.82515e-05
 Reference value :  3.82533e-05
 Reference value :  3.82544e-05
 Reference value :  3.82556e-05
 Reference value :  3.82593e-05
 Reference value :  3.82724e-05
 Reference value :  3.84832e-05
 Reference value :  3.85003e-05
 Reference value :  3.85012e-05
 Reference value :  3.85019e-05
 Reference value :  3.85033e-05
 Reference value :  3.85055e-05
 Reference value :  3.85084e-05
 Reference value :  3.85104e-05
 Reference value :  3.85129e-05
 Reference value :  3.85248e-05
 Reference value :  3.86417e-05
 Reference value :  3.87501e-05
 Reference value :  3.87502e-05
 Reference value :  3.87503e-05
 Reference value :  3.87510e-05
 Reference value :  3.87520e-05
 Reference value :  3.87532e-05
 Reference value :  3.87544e-05
 Reference value :  3.87555e-05
 Reference value :  3.87588e-05
 Reference value :  3.87812e-05
 Reference value :  3.90000e-05
 Reference value :  3.90001e-05
 Reference value :  3.90002e-05
 Reference value :  3.90005e-05
 Reference value :  3.90013e-05
 Reference value :  3.90023e-05
 Reference value :  3.90033e-05
 Reference value :  3.90045e-05
 Reference value :  3.90058e-05
 Reference value :  3.90084e-05
 Reference value :  3.90098e-05
 Reference value :  3.90128e-05
 Reference value :  3.90139e-05
 Reference value :  3.90172e-05
 Reference value :  3.90195e-05
 Reference value :  3.90231e-05
 Reference value :  3.90319e-05
 Reference value :  3.90436e-05
 Reference value :  3.90479e-05
 Reference value :  3.90575e-05
 Reference value :  3.90695e-05
 Reference value :  3.90818e-05
 Reference value :  3.91083e-05
 Reference value :  3.91416e-05
 Reference value :  3.91553e-05
 Reference value :  3.91690e-05
 Reference value :  3.91796e-05
 Reference value :  3.92393e-05
 Reference value :  3.92501e-05
 Reference value :  3.92502e-05
 Reference value :  3.92502e-05
 Reference value :  3.92507e-05
 Reference value :  3.92515e-05
 Reference value :  3.92533e-05
 Reference value :  3.92538e-05
 Reference value :  3.92550e-05
 Reference value :  3.92577e-05
 Reference value :  3.92723e-05
 Reference value :  3.93707e-05
 Reference value :  3.95000e-05
 Reference value :  3.95001e-05
 Reference value :  3.95001e-05
 Reference value :  3.95002e-05
 Reference value :  3.95003e-05
 Reference value :  3.95009e-05
 Reference value :  3.95018e-05
 Reference value :  3.95028e-05
 Reference value :  3.95033e-05
 Reference value :  3.95039e-05
 Reference value :  3.95055e-05
 Reference value :  3.95072e-05
 Reference value :  3.95089e-05
 Reference value :  3.95109e-05
 Reference value :  3.95187e-05
 Reference value :  3.95812e-05
 Reference value :  3.97501e-05
 Reference value :  3.97502e-05
 Reference value :  3.97503e-05
 Reference value :  3.97510e-05
 Reference value :  3.97520e-05
 Reference value :  3.97538e-05
 Reference value :  3.97549e-05
 Reference value :  3.97563e-05
 Reference value :  3.97641e-05
 Reference value :  3.99423e-05
 Reference value :  4.00001e-05
 Reference value :  4.00002e-05
 Reference value :  4.00009e-05
 Reference value :  4.00023e-05
 Reference value :  4.00039e-05
 Reference value :  4.00058e-05
 Reference value :  4.00084e-05
 Reference value :  4.00113e-05
 Reference value :  4.00139e-05
 Reference value :  4.00172e-05
 Reference value :  4.00214e-05
 Reference value :  4.00305e-05
 Reference value :  4.00414e-05
 Reference value :  4.00499e-05
 Reference value :  4.00628e-05
 Reference value :  4.00840e-05
 Reference value :  4.01464e-05
 Reference value :  4.02501e-05
 Reference value :  4.02502e-05
 Reference value :  4.02503e-05
 Reference value :  4.02510e-05
 Reference value :  4.02520e-05
 Reference value :  4.02532e-05
 Reference value :  4.02538e-05
 Reference value :  4.02549e-05
 Reference value :  4.02578e-05
 Reference value :  4.02652e-05
 Reference value :  4.03106e-05
 Reference value :  4.04131e-05
 Reference value :  4.04489e-05
 Reference value :  4.05000e-05
 Reference value :  4.05000e-05
 Reference value :  4.05001e-05
 Reference value :  4.05001e-05
 Reference value :  4.05003e-05
 Reference value :  4.05013e-05
 Reference value :  4.05028e-05
 Reference value :  4.05039e-05
 Reference value :  4.05055e-05
 Reference value :  4.05072e-05
 Reference value :  4.05089e-05
 Reference value :  4.05109e-05
 Reference value :  4.05277e-05
 Reference value :  4.07501e-05
 Reference value :  4.07502e-05
 Reference value :  4.07502e-05
 Reference value :  4.07504e-05
 Reference value :  4.07515e-05
 Reference value :  4.07532e-05
 Reference value :  4.07538e-05
 Reference value :  4.07549e-05
 Reference value :  4.07563e-05
 Reference value :  4.07609e-05
 Reference value :  4.07813e-05
 Reference value :  4.09417e-05
 Reference value :  4.10011e-05
 Reference value :  4.10032e-05
 Reference value :  4.10043e-05
 Reference value :  4.10063e-05
 Reference value :  4.10081e-05
 Reference value :  4.10105e-05
 Reference value :  4.10135e-05
 Reference value :  4.10146e-05
 Reference value :  4.10168e-05
 Reference value :  4.10192e-05
 Reference value :  4.10226e-05
 Reference value :  4.10311e-05
 Reference value :  4.10390e-05
 Reference value :  4.10466e-05
 Reference value :  4.10692e-05
 Reference value :  4.11369e-05
 Reference value :  4.12501e-05
 Reference value :  4.12502e-05
 Reference value :  4.12507e-05
 Reference value :  4.12515e-05
 Reference value :  4.12532e-05
 Reference value :  4.12542e-05
 Reference value :  4.12553e-05
 Reference value :  4.12588e-05
 Reference value :  4.12820e-05
 Reference value :  4.14508e-05
 Reference value :  4.15000e-05
 Reference value :  4.15001e-05
 Reference value :  4.15002e-05
 Reference value :  4.15003e-05
 Reference value :  4.15009e-05
 Reference value :  4.15017e-05
 Reference value :  4.15027e-05
 Reference value :  4.15038e-05
 Reference value :  4.15044e-05
 Reference value :  4.15052e-05
 Reference value :  4.15060e-05
 Reference value :  4.15067e-05
 Reference value :  4.15084e-05
 Reference value :  4.15103e-05
 Reference value :  4.15114e-05
 Reference value :  4.15151e-05
 Reference value :  4.15248e-05
 Reference value :  4.15543e-05
 Reference value :  4.16658e-05
 Reference value :  4.17501e-05
 Reference value :  4.17502e-05
 Reference value :  4.17502e-05
 Reference value :  4.17503e-05
 Reference value :  4.17507e-05
 Reference value :  4.17515e-05
 Reference value :  4.17525e-05
 Reference value :  4.17533e-05
 Reference value :  4.17538e-05
 Reference value :  4.17549e-05
 Reference value :  4.17563e-05
 Reference value :  4.17579e-05
 Reference value :  4.17601e-05
 Reference value :  4.17670e-05
 Reference value :  4.18172e-05
 Reference value :  4.20000e-05
 Reference value :  4.20001e-05
 Reference value :  4.20002e-05
 Reference value :  4.20005e-05
 Reference value :  4.20013e-05
 Reference value :  4.20023e-05
 Reference value :  4.20033e-05
 Reference value :  4.20046e-05
 Reference value :  4.20058e-05
 Reference value :  4.20073e-05
 Reference value :  4.20089e-05
 Reference value :  4.20115e-05
 Reference value :  4.20173e-05
 Reference value :  4.20285e-05
 Reference value :  4.20402e-05
 Reference value :  4.20448e-05
 Reference value :  4.20553e-05
 Reference value :  4.20802e-05
 Reference value :  4.22051e-05
 Reference value :  4.22501e-05
 Reference value :  4.22502e-05
 Reference value :  4.22503e-05
 Reference value :  4.22510e-05
 Reference value :  4.22520e-05
 Reference value :  4.22532e-05
 Reference value :  4.22550e-05
 Reference value :  4.22570e-05
 Reference value :  4.22602e-05
 Reference value :  4.22965e-05
 Reference value :  4.25000e-05
 Reference value :  4.25000e-05
 Reference value :  4.25000e-05
 Reference value :  4.25000e-05
 Reference value :  4.25000e-05
 Reference value :  4.25001e-05
 Reference value :  4.25002e-05
 Reference value :  4.25007e-05
 Reference value :  4.25017e-05
 Reference value :  4.25022e-05
 Reference value :  4.25032e-05
 Reference value :  4.25045e-05
 Reference value :  4.25050e-05
 Reference value :  4.25062e-05
 Reference value :  4.25083e-05
 Reference value :  4.25190e-05
 Reference value :  4.25244e-05
 Reference value :  4.25288e-05
 Reference value :  4.25320e-05
 Reference value :  4.25348e-05
 Reference value :  4.25371e-05
 Reference value :  4.25414e-05
 Reference value :  4.25493e-05
 Reference value :  4.25578e-05
 Reference value :  4.25788e-05
 Reference value :  4.26368e-05
 Reference value :  4.27501e-05
 Reference value :  4.27501e-05
 Reference value :  4.27502e-05
 Reference value :  4.27502e-05
 Reference value :  4.27504e-05
 Reference value :  4.27509e-05
 Reference value :  4.27517e-05
 Reference value :  4.27535e-05
 Reference value :  4.27546e-05
 Reference value :  4.27559e-05
 Reference value :  4.27601e-05
 Reference value :  4.27921e-05
 Reference value :  4.30000e-05
 Reference value :  4.30001e-05
 Reference value :  4.30002e-05
 Reference value :  4.30009e-05
 Reference value :  4.30028e-05
 Reference value :  4.30045e-05
 Reference value :  4.30076e-05
 Reference value :  4.30115e-05
 Reference value :  4.30148e-05
 Reference value :  4.30258e-05
 Reference value :  4.30590e-05
 Reference value :  4.32501e-05
 Reference value :  4.32502e-05
 Reference value :  4.32503e-05
 Reference value :  4.32510e-05
 Reference value :  4.32525e-05
 Reference value :  4.32538e-05
 Reference value :  4.32549e-05
 Reference value :  4.32563e-05
 Reference value :  4.32609e-05
 Reference value :  4.33500e-05
 Reference value :  4.35010e-05
 Reference value :  4.35040e-05
 Reference value :  4.35059e-05
 Reference value :  4.35086e-05
 Reference value :  4.35114e-05
 Reference value :  4.35139e-05
 Reference value :  4.35162e-05
 Reference value :  4.35184e-05
 Reference value :  4.35232e-05
 Reference value :  4.35525e-05
 Reference value :  4.36902e-05
 Reference value :  4.37501e-05
 Reference value :  4.37502e-05
 Reference value :  4.37504e-05
 Reference value :  4.37515e-05
 Reference value :  4.37532e-05
 Reference value :  4.37543e-05
 Reference value :  4.37565e-05
 Reference value :  4.37717e-05
 Reference value :  4.40000e-05
 Reference value :  4.40001e-05
 Reference value :  4.40001e-05
 Reference value :  4.40003e-05
 Reference value :  4.40013e-05
 Reference value :  4.40028e-05
 Reference value :  4.40039e-05
 Reference value :  4.40055e-05
 Reference value :  4.40072e-05
 Reference value :  4.40089e-05
 Reference value :  4.40109e-05
 Reference value :  4.40276e-05
 Reference value :  4.41516e-05
 Reference value :  4.42502e-05
 Reference value :  4.42502e-05
 Reference value :  4.42504e-05
 Reference value :  4.42515e-05
 Reference value :  4.42533e-05
 Reference value :  4.42538e-05
 Reference value :  4.42549e-05
 Reference value :  4.42563e-05
 Reference value :  4.42609e-05
 Reference value :  4.43041e-05
 Reference value :  4.45000e-05
 Reference value :  4.45001e-05
 Reference value :  4.45002e-05
 Reference value :  4.45005e-05
 Reference value :  4.45013e-05
 Reference value :  4.45023e-05
 Reference value :  4.45033e-05
 Reference value :  4.45045e-05
 Reference value :  4.45058e-05
 Reference value :  4.45084e-05
 Reference value :  4.45098e-05
 Reference value :  4.45128e-05
 Reference value :  4.45139e-05
 Reference value :  4.45161e-05
 Reference value :  4.45172e-05
 Reference value :  4.45195e-05
 Reference value :  4.45266e-05
 Reference value :  4.45404e-05
 Reference value :  4.45491e-05
 Reference value :  4.45641e-05
 Reference value :  4.46115e-05
 Reference value :  4.47501e-05
 Reference value :  4.47502e-05
 Reference value :  4.47507e-05
 Reference value :  4.47525e-05
 Reference value :  4.47543e-05
 Reference value :  4.47578e-05
 Reference value :  4.48620e-05
 Reference value :  4.50001e-05
 Reference value :  4.50003e-05
 Reference value :  4.50017e-05
 Reference value :  4.50032e-05
 Reference value :  4.50052e-05
 Reference value :  4.50067e-05
 Reference value :  4.50094e-05
 Reference value :  4.50114e-05
 Reference value :  4.50908e-05
 Reference value :  4.52502e-05
 Reference value :  4.52510e-05
 Reference value :  4.52533e-05
 Reference value :  4.52549e-05
 Reference value :  4.52579e-05
 Reference value :  4.52731e-05
 Reference value :  4.54604e-05
 Reference value :  4.55001e-05
 Reference value :  4.55009e-05
 Reference value :  4.55028e-05
 Reference value :  4.55046e-05
 Reference value :  4.55064e-05
 Reference value :  4.55093e-05
 Reference value :  4.55115e-05
 Reference value :  4.55135e-05
 Reference value :  4.55154e-05
 Reference value :  4.55186e-05
 Reference value :  4.55238e-05
 Reference value :  4.55494e-05
 Reference value :  4.55710e-05
 Reference value :  4.55796e-05
 Reference value :  4.55834e-05
 Reference value :  4.55971e-05
 Reference value :  4.56273e-05
 Reference value :  4.57228e-05
 Reference value :  4.57501e-05
 Reference value :  4.57502e-05
 Reference value :  4.57502e-05
 Reference value :  4.57503e-05
 Reference value :  4.57507e-05
 Reference value :  4.57515e-05
 Reference value :  4.57525e-05
 Reference value :  4.57538e-05
 Reference value :  4.57550e-05
 Reference value :  4.57565e-05
 Reference value :  4.57593e-05
 Reference value :  4.57724e-05
 Reference value :  4.58112e-05
 Reference value :  4.58724e-05
 Reference value :  4.58931e-05
 Reference value :  4.59128e-05
 Reference value :  4.59284e-05
 Reference value :  4.60002e-05
 Reference value :  4.60009e-05
 Reference value :  4.60015e-05
 Reference value :  4.60023e-05
 Reference value :  4.60035e-05
 Reference value :  4.60049e-05
 Reference value :  4.60067e-05
 Reference value :  4.60085e-05
 Reference value :  4.60105e-05
 Reference value :  4.60131e-05
 Reference value :  4.60357e-05
 Reference value :  4.61838e-05
 Reference value :  4.62501e-05
 Reference value :  4.62502e-05
 Reference value :  4.62503e-05
 Reference value :  4.62510e-05
 Reference value :  4.62526e-05
 Reference value :  4.62538e-05
 Reference value :  4.62549e-05
 Reference value :  4.62563e-05
 Reference value :  4.62580e-05
 Reference value :  4.62603e-05
 Reference value :  4.62673e-05
 Reference value :  4.63242e-05
 Reference value :  4.65000e-05
 Reference value :  4.65001e-05
 Reference value :  4.65002e-05
 Reference value :  4.65005e-05
 Reference value :  4.65013e-05
 Reference value :  4.65023e-05
 Reference value :  4.65033e-05
 Reference value :  4.65046e-05
 Reference value :  4.65058e-05
 Reference value :  4.65073e-05
 Reference value :  4.65093e-05
 Reference value :  4.65115e-05
 Reference value :  4.65126e-05
 Reference value :  4.65135e-05
 Reference value :  4.65154e-05
 Reference value :  4.65174e-05
 Reference value :  4.65198e-05
 Reference value :  4.65260e-05
 Reference value :  4.65276e-05
 Reference value :  4.65322e-05
 Reference value :  4.65547e-05
 Reference value :  4.66075e-05
 Reference value :  4.67501e-05
 Reference value :  4.67501e-05
 Reference value :  4.67502e-05
 Reference value :  4.67503e-05
 Reference value :  4.67504e-05
 Reference value :  4.67510e-05
 Reference value :  4.67515e-05
 Reference value :  4.67525e-05
 Reference value :  4.67533e-05
 Reference value :  4.67538e-05
 Reference value :  4.67550e-05
 Reference value :  4.67577e-05
 Reference value :  4.67724e-05
 Reference value :  4.69832e-05
 Reference value :  4.70001e-05
 Reference value :  4.70002e-05
 Reference value :  4.70005e-05
 Reference value :  4.70018e-05
 Reference value :  4.70033e-05
 Reference value :  4.70055e-05
 Reference value :  4.70072e-05
 Reference value :  4.70080e-05
 Reference value :  4.70089e-05
 Reference value :  4.70109e-05
 Reference value :  4.70187e-05
 Reference value :  4.70811e-05
 Reference value :  4.72501e-05
 Reference value :  4.72502e-05
 Reference value :  4.72503e-05
 Reference value :  4.72507e-05
 Reference value :  4.72515e-05
 Reference value :  4.72533e-05
 Reference value :  4.72544e-05
 Reference value :  4.72555e-05
[...]
 Reference value :  1.66250e-04
 Reference value :  1.66251e-04
 Reference value :  1.66252e-04
 Reference value :  1.66253e-04
 Reference value :  1.66254e-04
 Reference value :  1.66255e-04
 Reference value :  1.66256e-04
 Reference value :  1.66258e-04
 Reference value :  1.66260e-04
 Reference value :  1.66267e-04
 Reference value :  1.66296e-04
 Reference value :  1.66460e-04
 Reference value :  1.66500e-04
 Reference value :  1.66500e-04
 Reference value :  1.66500e-04
 Reference value :  1.66501e-04
 Reference value :  1.66501e-04
 Reference value :  1.66502e-04
 Reference value :  1.66503e-04
 Reference value :  1.66505e-04
 Reference value :  1.66506e-04
 Reference value :  1.66507e-04
 Reference value :  1.66510e-04
 Reference value :  1.66513e-04
 Reference value :  1.66514e-04
 Reference value :  1.66515e-04
 Reference value :  1.66518e-04
 Reference value :  1.66520e-04
 Reference value :  1.66528e-04
 Reference value :  1.66542e-04
 Reference value :  1.66549e-04
 Reference value :  1.66555e-04
 Reference value :  1.66577e-04
 Reference value :  1.66635e-04
 Reference value :  1.66659e-04
 Reference value :  1.66679e-04
 Reference value :  1.66694e-04
 Reference value :  1.66722e-04
 Reference value :  1.66750e-04
 Reference value :  1.66750e-04
 Reference value :  1.66750e-04
 Reference value :  1.66751e-04
 Reference value :  1.66752e-04
 Reference value :  1.66753e-04
 Reference value :  1.66754e-04
 Reference value :  1.66756e-04
 Reference value :  1.66765e-04
 Reference value :  1.66811e-04
 Reference value :  1.67000e-04
 Reference value :  1.67000e-04
 Reference value :  1.67000e-04
 Reference value :  1.67001e-04
 Reference value :  1.67002e-04
 Reference value :  1.67003e-04
 Reference value :  1.67004e-04
 Reference value :  1.67006e-04
 Reference value :  1.67007e-04
 Reference value :  1.67008e-04
 Reference value :  1.67010e-04
 Reference value :  1.67013e-04
 Reference value :  1.67025e-04
 Reference value :  1.67164e-04
 Reference value :  1.67250e-04
 Reference value :  1.67250e-04
 Reference value :  1.67250e-04
 Reference value :  1.67252e-04
 Reference value :  1.67253e-04
 Reference value :  1.67254e-04
 Reference value :  1.67255e-04
 Reference value :  1.67256e-04
 Reference value :  1.67259e-04
 Reference value :  1.67264e-04
 Reference value :  1.67281e-04
 Reference value :  1.67460e-04
 Reference value :  1.67500e-04
 Reference value :  1.67500e-04
 Reference value :  1.67500e-04
 Reference value :  1.67501e-04
 Reference value :  1.67502e-04
 Reference value :  1.67503e-04
 Reference value :  1.67505e-04
 Reference value :  1.67506e-04
 Reference value :  1.67507e-04
 Reference value :  1.67509e-04
 Reference value :  1.67510e-04
 Reference value :  1.67511e-04
 Reference value :  1.67513e-04
 Reference value :  1.67515e-04
 Reference value :  1.67517e-04
 Reference value :  1.67519e-04
 Reference value :  1.67522e-04
 Reference value :  1.67527e-04
 Reference value :  1.67534e-04
 Reference value :  1.67536e-04
 Reference value :  1.67541e-04
 Reference value :  1.67554e-04
 Reference value :  1.67621e-04
 Reference value :  1.67750e-04
 Reference value :  1.67750e-04
 Reference value :  1.67750e-04
 Reference value :  1.67751e-04
 Reference value :  1.67752e-04
 Reference value :  1.67753e-04
 Reference value :  1.67754e-04
 Reference value :  1.67756e-04
 Reference value :  1.67759e-04
 Reference value :  1.67786e-04
 Reference value :  1.68000e-04
 Reference value :  1.68000e-04
 Reference value :  1.68000e-04
 Reference value :  1.68001e-04
 Reference value :  1.68002e-04
 Reference value :  1.68003e-04
 Reference value :  1.68005e-04
 Reference value :  1.68007e-04
 Reference value :  1.68009e-04
 Reference value :  1.68011e-04
 Reference value :  1.68028e-04
 Reference value :  1.68250e-04
 Reference value :  1.68250e-04
 Reference value :  1.68250e-04
 Reference value :  1.68251e-04
 Reference value :  1.68252e-04
 Reference value :  1.68253e-04
 Reference value :  1.68254e-04
 Reference value :  1.68255e-04
 Reference value :  1.68256e-04
 Reference value :  1.68261e-04
 Reference value :  1.68281e-04
 Reference value :  1.68441e-04
 Reference value :  1.68500e-04
 Reference value :  1.68500e-04
 Reference value :  1.68500e-04
 Reference value :  1.68500e-04
 Reference value :  1.68501e-04
 Reference value :  1.68502e-04
 Reference value :  1.68503e-04
 Reference value :  1.68503e-04
 Reference value :  1.68504e-04
 Reference value :  1.68506e-04
 Reference value :  1.68507e-04
 Reference value :  1.68510e-04
 Reference value :  1.68513e-04
 Reference value :  1.68514e-04
 Reference value :  1.68516e-04
 Reference value :  1.68517e-04
 Reference value :  1.68519e-04
 Reference value :  1.68523e-04
 Reference value :  1.68529e-04
 Reference value :  1.68536e-04
 Reference value :  1.68544e-04
 Reference value :  1.68555e-04
 Reference value :  1.68576e-04
 Reference value :  1.68649e-04
 Reference value :  1.68750e-04
 Reference value :  1.68750e-04
 Reference value :  1.68750e-04
 Reference value :  1.68751e-04
 Reference value :  1.68751e-04
 Reference value :  1.68753e-04
 Reference value :  1.68754e-04
 Reference value :  1.68755e-04
 Reference value :  1.68759e-04
 Reference value :  1.68811e-04
 Reference value :  1.69000e-04
 Reference value :  1.69000e-04
 Reference value :  1.69001e-04
 Reference value :  1.69002e-04
 Reference value :  1.69003e-04
 Reference value :  1.69004e-04
 Reference value :  1.69005e-04
 Reference value :  1.69007e-04
 Reference value :  1.69008e-04
 Reference value :  1.69010e-04
 Reference value :  1.69011e-04
 Reference value :  1.69025e-04
 Reference value :  1.69091e-04
 Reference value :  1.69250e-04
 Reference value :  1.69250e-04
 Reference value :  1.69250e-04
 Reference value :  1.69251e-04
 Reference value :  1.69253e-04
 Reference value :  1.69254e-04
 Reference value :  1.69255e-04
 Reference value :  1.69257e-04
 Reference value :  1.69260e-04
 Reference value :  1.69267e-04
 Reference value :  1.69366e-04
 Reference value :  1.69500e-04
 Reference value :  1.69500e-04
 Reference value :  1.69500e-04
 Reference value :  1.69501e-04
 Reference value :  1.69503e-04
 Reference value :  1.69504e-04
 Reference value :  1.69506e-04
 Reference value :  1.69508e-04
 Reference value :  1.69510e-04
 Reference value :  1.69515e-04
 Reference value :  1.69525e-04
 Reference value :  1.69552e-04
 Reference value :  1.69571e-04
 Reference value :  1.69632e-04
 Reference value :  1.69750e-04
 Reference value :  1.69750e-04
 Reference value :  1.69750e-04
 Reference value :  1.69751e-04
 Reference value :  1.69752e-04
 Reference value :  1.69753e-04
 Reference value :  1.69754e-04
 Reference value :  1.69756e-04
 Reference value :  1.69759e-04
 Reference value :  1.69777e-04
 Reference value :  1.69911e-04
 Reference value :  1.70000e-04
 Reference value :  1.70000e-04
 Reference value :  1.70000e-04
 Reference value :  1.70000e-04
 Reference value :  1.70000e-04
 Reference value :  1.70000e-04
 Reference value :  1.70001e-04
 Reference value :  1.70002e-04
 Reference value :  1.70003e-04
 Reference value :  1.70005e-04
 Reference value :  1.70006e-04
 Reference value :  1.70013e-04
 Reference value :  1.70024e-04
 Reference value :  1.70029e-04
 Reference value :  1.70032e-04
 Reference value :  1.70037e-04
 Reference value :  1.70044e-04
 Reference value :  1.70067e-04
 Reference value :  1.70138e-04
 Reference value :  1.70250e-04
 Reference value :  1.70250e-04
 Reference value :  1.70250e-04
 Reference value :  1.70251e-04
 Reference value :  1.70251e-04
 Reference value :  1.70253e-04
 Reference value :  1.70254e-04
 Reference value :  1.70256e-04
 Reference value :  1.70262e-04
 Reference value :  1.70368e-04
 Reference value :  1.70500e-04
 Reference value :  1.70500e-04
 Reference value :  1.70501e-04
 Reference value :  1.70503e-04
 Reference value :  1.70504e-04
 Reference value :  1.70506e-04
 Reference value :  1.70509e-04
 Reference value :  1.70513e-04
 Reference value :  1.70516e-04
 Reference value :  1.70531e-04
 Reference value :  1.70750e-04
 Reference value :  1.70750e-04
 Reference value :  1.70750e-04
 Reference value :  1.70751e-04
 Reference value :  1.70752e-04
 Reference value :  1.70754e-04
 Reference value :  1.70755e-04
 Reference value :  1.70756e-04
 Reference value :  1.70764e-04
 Reference value :  1.70850e-04
 Reference value :  1.71000e-04
 Reference value :  1.71000e-04
 Reference value :  1.71000e-04
 Reference value :  1.71001e-04
 Reference value :  1.71003e-04
 Reference value :  1.71004e-04
 Reference value :  1.71006e-04
 Reference value :  1.71008e-04
 Reference value :  1.71010e-04
 Reference value :  1.71013e-04
 Reference value :  1.71014e-04
 Reference value :  1.71016e-04
 Reference value :  1.71018e-04
 Reference value :  1.71023e-04
 Reference value :  1.71040e-04
 Reference value :  1.71138e-04
 Reference value :  1.71250e-04
 Reference value :  1.71250e-04
 Reference value :  1.71250e-04
 Reference value :  1.71251e-04
 Reference value :  1.71252e-04
 Reference value :  1.71253e-04
 Reference value :  1.71254e-04
 Reference value :  1.71255e-04
 Reference value :  1.71258e-04
 Reference value :  1.71265e-04
 Reference value :  1.71371e-04
 Reference value :  1.71500e-04
 Reference value :  1.71500e-04
 Reference value :  1.71501e-04
 Reference value :  1.71502e-04
 Reference value :  1.71503e-04
 Reference value :  1.71504e-04
 Reference value :  1.71505e-04
 Reference value :  1.71507e-04
 Reference value :  1.71509e-04
 Reference value :  1.71511e-04
 Reference value :  1.71528e-04
 Reference value :  1.71652e-04
 Reference value :  1.71750e-04
 Reference value :  1.71750e-04
 Reference value :  1.71750e-04
 Reference value :  1.71751e-04
 Reference value :  1.71753e-04
 Reference value :  1.71754e-04
 Reference value :  1.71755e-04
 Reference value :  1.71756e-04
 Reference value :  1.71761e-04
 Reference value :  1.71804e-04
 Reference value :  1.72000e-04
 Reference value :  1.72000e-04
 Reference value :  1.72000e-04
 Reference value :  1.72001e-04
 Reference value :  1.72002e-04
 Reference value :  1.72003e-04
 Reference value :  1.72004e-04
 Reference value :  1.72007e-04
 Reference value :  1.72010e-04
 Reference value :  1.72014e-04
 Reference value :  1.72017e-04
 Reference value :  1.72023e-04
 Reference value :  1.72044e-04
 Reference value :  1.72061e-04
 Reference value :  1.72096e-04
 Reference value :  1.72250e-04
 Reference value :  1.72250e-04
 Reference value :  1.72250e-04
 Reference value :  1.72251e-04
 Reference value :  1.72252e-04
 Reference value :  1.72254e-04
 Reference value :  1.72255e-04
 Reference value :  1.72258e-04
 Reference value :  1.72265e-04
 Reference value :  1.72362e-04
 Reference value :  1.72500e-04
 Reference value :  1.72500e-04
 Reference value :  1.72500e-04
 Reference value :  1.72501e-04
 Reference value :  1.72502e-04
 Reference value :  1.72503e-04
 Reference value :  1.72504e-04
 Reference value :  1.72506e-04
 Reference value :  1.72507e-04
 Reference value :  1.72508e-04
 Reference value :  1.72510e-04
 Reference value :  1.72511e-04
 Reference value :  1.72519e-04
 Reference value :  1.72554e-04
 Reference value :  1.72750e-04
 Reference value :  1.72750e-04
 Reference value :  1.72750e-04
 Reference value :  1.72750e-04
 Reference value :  1.72751e-04
 Reference value :  1.72752e-04
 Reference value :  1.72753e-04
 Reference value :  1.72754e-04
 Reference value :  1.72755e-04
 Reference value :  1.72756e-04
 Reference value :  1.72758e-04
 Reference value :  1.72760e-04
 Reference value :  1.72767e-04
 Reference value :  1.72796e-04
 Reference value :  1.72960e-04
 Reference value :  1.73000e-04
 Reference value :  1.73000e-04
 Reference value :  1.73000e-04
 Reference value :  1.73001e-04
 Reference value :  1.73002e-04
 Reference value :  1.73003e-04
 Reference value :  1.73005e-04
 Reference value :  1.73006e-04
 Reference value :  1.73008e-04
 Reference value :  1.73010e-04
 Reference value :  1.73013e-04
 Reference value :  1.73014e-04
 Reference value :  1.73015e-04
 Reference value :  1.73017e-04
 Reference value :  1.73020e-04
 Reference value :  1.73028e-04
 Reference value :  1.73052e-04
 Reference value :  1.73061e-04
 Reference value :  1.73068e-04
 Reference value :  1.73077e-04
 Reference value :  1.73085e-04
 Reference value :  1.73102e-04
 Reference value :  1.73169e-04
 Reference value :  1.73250e-04
 Reference value :  1.73250e-04
 Reference value :  1.73251e-04
 Reference value :  1.73253e-04
 Reference value :  1.73254e-04
 Reference value :  1.73255e-04
 Reference value :  1.73258e-04
 Reference value :  1.73272e-04
 Reference value :  1.73483e-04
 Reference value :  1.73500e-04
 Reference value :  1.73500e-04
 Reference value :  1.73502e-04
 Reference value :  1.73504e-04
 Reference value :  1.73505e-04
 Reference value :  1.73507e-04
 Reference value :  1.73509e-04
 Reference value :  1.73511e-04
 Reference value :  1.73528e-04
 Reference value :  1.73652e-04
 Reference value :  1.73750e-04
 Reference value :  1.73750e-04
 Reference value :  1.73750e-04
 Reference value :  1.73752e-04
 Reference value :  1.73753e-04
 Reference value :  1.73754e-04
 Reference value :  1.73755e-04
 Reference value :  1.73759e-04
 Reference value :  1.73781e-04
 Reference value :  1.74000e-04
 Reference value :  1.74000e-04
 Reference value :  1.74000e-04
 Reference value :  1.74001e-04
 Reference value :  1.74003e-04
 Reference value :  1.74004e-04
 Reference value :  1.74007e-04
 Reference value :  1.74010e-04
 Reference value :  1.74014e-04
 Reference value :  1.74017e-04
 Reference value :  1.74021e-04
 Reference value :  1.74031e-04
 Reference value :  1.74039e-04
 Reference value :  1.74046e-04
 Reference value :  1.74061e-04
 Reference value :  1.74116e-04
 Reference value :  1.74250e-04
 Reference value :  1.74250e-04
 Reference value :  1.74250e-04
 Reference value :  1.74251e-04
 Reference value :  1.74253e-04
 Reference value :  1.74254e-04
 Reference value :  1.74256e-04
 Reference value :  1.74285e-04
 Reference value :  1.74500e-04
 Reference value :  1.74500e-04
 Reference value :  1.74501e-04
 Reference value :  1.74502e-04
 Reference value :  1.74503e-04
 Reference value :  1.74504e-04
 Reference value :  1.74506e-04
 Reference value :  1.74508e-04
 Reference value :  1.74511e-04
 Reference value :  1.74554e-04
 Reference value :  1.74750e-04
 Reference value :  1.74750e-04
 Reference value :  1.74751e-04
 Reference value :  1.74753e-04
 Reference value :  1.74754e-04
 Reference value :  1.74755e-04
 Reference value :  1.74758e-04
 Reference value :  1.74773e-04
 Reference value :  1.75000e-04
 Reference value :  1.75000e-04
 Reference value :  1.75000e-04
 Reference value :  1.75001e-04
 Reference value :  1.75003e-04
 Reference value :  1.75004e-04
 Reference value :  1.75006e-04
 Reference value :  1.75008e-04
 Reference value :  1.75011e-04
 Reference value :  1.75014e-04
 Reference value :  1.75018e-04
 Reference value :  1.75022e-04
 Reference value :  1.75028e-04
 Reference value :  1.75041e-04
 Reference value :  1.75047e-04
 Reference value :  1.75053e-04
 Reference value :  1.75073e-04
 Reference value :  1.75130e-04
 Reference value :  1.75159e-04
 Reference value :  1.75184e-04
 Reference value :  1.75210e-04
 Reference value :  1.75250e-04
 Reference value :  1.75250e-04
 Reference value :  1.75250e-04
 Reference value :  1.75252e-04
 Reference value :  1.75253e-04
 Reference value :  1.75254e-04
 Reference value :  1.75255e-04
 Reference value :  1.75258e-04
 Reference value :  1.75265e-04
 Reference value :  1.75311e-04
 Reference value :  1.75500e-04
 Reference value :  1.75500e-04
 Reference value :  1.75500e-04
 Reference value :  1.75501e-04
 Reference value :  1.75502e-04
 Reference value :  1.75503e-04
 Reference value :  1.75505e-04
 Reference value :  1.75507e-04
 Reference value :  1.75509e-04
 Reference value :  1.75513e-04
 Reference value :  1.75556e-04
 Reference value :  1.75750e-04
 Reference value :  1.75750e-04
 Reference value :  1.75751e-04
 Reference value :  1.75752e-04
 Reference value :  1.75753e-04
 Reference value :  1.75754e-04
 Reference value :  1.75755e-04
 Reference value :  1.75757e-04
 Reference value :  1.75760e-04
 Reference value :  1.75762e-04
 Reference value :  1.75767e-04
 Reference value :  1.75820e-04
 Reference value :  1.76000e-04
 Reference value :  1.76000e-04
 Reference value :  1.76000e-04
 Reference value :  1.76000e-04
 Reference value :  1.76001e-04
 Reference value :  1.76002e-04
 Reference value :  1.76003e-04
 Reference value :  1.76005e-04
 Reference value :  1.76006e-04
 Reference value :  1.76007e-04
 Reference value :  1.76009e-04
 Reference value :  1.76013e-04
 Reference value :  1.76015e-04
 Reference value :  1.76019e-04
 Reference value :  1.76031e-04
 Reference value :  1.76036e-04
 Reference value :  1.76051e-04
 Reference value :  1.76130e-04
 Reference value :  1.76250e-04
 Reference value :  1.76250e-04
 Reference value :  1.76251e-04
 Reference value :  1.76252e-04
 Reference value :  1.76254e-04
 Reference value :  1.76256e-04
 Reference value :  1.76265e-04
 Reference value :  1.76483e-04
 Reference value :  1.76500e-04
 Reference value :  1.76500e-04
 Reference value :  1.76501e-04
 Reference value :  1.76503e-04
 Reference value :  1.76504e-04
 Reference value :  1.76506e-04
 Reference value :  1.76508e-04
 Reference value :  1.76510e-04
 Reference value :  1.76519e-04
 Reference value :  1.76652e-04
 Reference value :  1.76750e-04
 Reference value :  1.76750e-04
 Reference value :  1.76751e-04
 Reference value :  1.76752e-04
 Reference value :  1.76753e-04
 Reference value :  1.76754e-04
 Reference value :  1.76755e-04
 Reference value :  1.76756e-04
 Reference value :  1.76761e-04
 Reference value :  1.76781e-04
 Reference value :  1.77000e-04
 Reference value :  1.77000e-04
 Reference value :  1.77000e-04
 Reference value :  1.77000e-04
 Reference value :  1.77001e-04
 Reference value :  1.77002e-04
 Reference value :  1.77003e-04
 Reference value :  1.77006e-04
 Reference value :  1.77010e-04
 Reference value :  1.77014e-04
 Reference value :  1.77017e-04
 Reference value :  1.77023e-04
 Reference value :  1.77033e-04
 Reference value :  1.77048e-04
 Reference value :  1.77066e-04
 Reference value :  1.77250e-04
 Reference value :  1.77250e-04
 Reference value :  1.77251e-04
 Reference value :  1.77253e-04
 Reference value :  1.77254e-04
 Reference value :  1.77256e-04
 Reference value :  1.77265e-04
 Reference value :  1.77310e-04
 Reference value :  1.77500e-04
 Reference value :  1.77500e-04
 Reference value :  1.77500e-04
 Reference value :  1.77501e-04
 Reference value :  1.77502e-04
 Reference value :  1.77504e-04
 Reference value :  1.77506e-04
 Reference value :  1.77507e-04
 Reference value :  1.77509e-04
 Reference value :  1.77513e-04
 Reference value :  1.77536e-04
 Reference value :  1.77750e-04
 Reference value :  1.77750e-04
 Reference value :  1.77750e-04
 Reference value :  1.77751e-04
 Reference value :  1.77753e-04
 Reference value :  1.77754e-04
 Reference value :  1.77755e-04
 Reference value :  1.77757e-04
 Reference value :  1.77762e-04
 Reference value :  1.77796e-04
 Reference value :  1.78000e-04
 Reference value :  1.78000e-04
 Reference value :  1.78001e-04
 Reference value :  1.78002e-04
 Reference value :  1.78003e-04
 Reference value :  1.78005e-04
 Reference value :  1.78007e-04
 Reference value :  1.78009e-04
 Reference value :  1.78012e-04
 Reference value :  1.78020e-04
 Reference value :  1.78035e-04
 Reference value :  1.78053e-04
 Reference value :  1.78114e-04
 Reference value :  1.78250e-04
 Reference value :  1.78250e-04
 Reference value :  1.78251e-04
 Reference value :  1.78252e-04
 Reference value :  1.78254e-04
 Reference value :  1.78257e-04
 Reference value :  1.78268e-04
 Reference value :  1.78500e-04
No. of Data Rows : 25969
ngspice-44 done
