
Note: Compatibility modes selected: hs a


Circuit: ** sch_path: /home/samantha/cace/sar-adc-using-sky130-pdk/runs/run_2025-09-01_18-38-18/parameters/sampling_rate/run_0/sampling_rate.sch

option SCALE: Scale is set to 1e-06 for instance and model parameters
option SCALE: Scale is set to 1e-06 for instance and model parameters
option SCALE: Scale is set to 1e-06 for instance and model parameters
option SCALE: Scale is set to 1e-06 for instance and model parameters
Doing analysis at TEMP = 27.000000 and TNOM = 27.000000

Using KLU as Direct Linear Solver
Operating point simulation skipped by 'uic',
  now using transient initial conditions.
 Reference value :  1.00000e-12
 Reference value :  1.02386e-12
 Reference value :  1.07159e-12
 Reference value :  1.14211e-12
 Reference value :  1.22024e-12
 Reference value :  1.35923e-12
 Reference value :  1.57502e-12
 Reference value :  1.90705e-12
 Reference value :  2.54084e-12
 Reference value :  3.47530e-12
 Reference value :  4.89856e-12
 Reference value :  6.43062e-12
 Reference value :  8.78335e-12
 Reference value :  1.27849e-11
 Reference value :  1.81490e-11
 Reference value :  2.51074e-11
 Reference value :  3.40444e-11
 Reference value :  4.40896e-11
 Reference value :  5.96882e-11
 Reference value :  7.80760e-11
 Reference value :  1.00000e-10
 Reference value :  1.00423e-10
 Reference value :  1.01270e-10
 Reference value :  1.02963e-10
 Reference value :  1.06331e-10
 Reference value :  1.13066e-10
 Reference value :  1.26537e-10
 Reference value :  1.53478e-10
 Reference value :  1.90934e-10
 Reference value :  2.38970e-10
 Reference value :  3.07498e-10
 Reference value :  4.32285e-10
 Reference value :  6.63541e-10
 Reference value :  9.52049e-10
 Reference value :  1.38198e-09
 Reference value :  1.88247e-09
 Reference value :  2.64497e-09
 Reference value :  3.51642e-09
 Reference value :  4.28571e-09
 Reference value :  5.14288e-09
 Reference value :  5.99067e-09
 Reference value :  6.86949e-09
 Reference value :  7.88789e-09
 Reference value :  8.91207e-09
 Reference value :  9.93902e-09
 Reference value :  1.07063e-08
 Reference value :  1.15520e-08
 Reference value :  1.24878e-08
 Reference value :  1.34671e-08
 Reference value :  1.44708e-08
 Reference value :  1.56967e-08
 Reference value :  1.68193e-08
 Reference value :  1.81207e-08
 Reference value :  1.93653e-08
 Reference value :  2.08401e-08
 Reference value :  2.27275e-08
 Reference value :  2.39356e-08
 Reference value :  2.56595e-08
 Reference value :  2.73922e-08
 Reference value :  2.97650e-08
 Reference value :  3.23274e-08
 Reference value :  3.50142e-08
 Reference value :  4.03880e-08
 Reference value :  4.78339e-08
 Reference value :  6.22727e-08
 Reference value :  9.10097e-08
 Reference value :  1.24851e-07
 Reference value :  1.85862e-07
 Reference value :  2.50100e-07
 Reference value :  2.50110e-07
 Reference value :  2.50130e-07
 Reference value :  2.50170e-07
 Reference value :  2.50200e-07
 Reference value :  2.50201e-07
 Reference value :  2.50202e-07
 Reference value :  2.50204e-07
 Reference value :  2.50208e-07
 Reference value :  2.50216e-07
 Reference value :  2.50232e-07
 Reference value :  2.50265e-07
 Reference value :  2.50331e-07
 Reference value :  2.50412e-07
 Reference value :  2.50575e-07
 Reference value :  2.50741e-07
 Reference value :  2.51073e-07
 Reference value :  2.51459e-07
 Reference value :  2.52119e-07
 Reference value :  2.52784e-07
 Reference value :  2.53506e-07
 Reference value :  2.54463e-07
 Reference value :  2.55477e-07
 Reference value :  2.56511e-07
 Reference value :  2.57705e-07
 Reference value :  2.58900e-07
 Reference value :  2.60081e-07
 Reference value :  2.61404e-07
 Reference value :  2.63104e-07
 Reference value :  2.65830e-07
 Reference value :  2.69919e-07
 Reference value :  2.77674e-07
 Reference value :  2.90942e-07
 Reference value :  3.15632e-07
 Reference value :  3.60199e-07
 Reference value :  4.40896e-07
 Reference value :  5.00000e-07
 Reference value :  5.00010e-07
 Reference value :  5.00030e-07
 Reference value :  5.00070e-07
 Reference value :  5.00100e-07
 Reference value :  5.00101e-07
 Reference value :  5.00102e-07
 Reference value :  5.00104e-07
 Reference value :  5.00108e-07
 Reference value :  5.00116e-07
 Reference value :  5.00133e-07
 Reference value :  5.00166e-07
 Reference value :  5.00232e-07
 Reference value :  5.00364e-07
 Reference value :  5.00562e-07
 Reference value :  5.00958e-07
 Reference value :  5.01468e-07
 Reference value :  5.02004e-07
 Reference value :  5.02765e-07
 Reference value :  5.03571e-07
 Reference value :  5.04319e-07
 Reference value :  5.05131e-07
 Reference value :  5.06130e-07
 Reference value :  5.07181e-07
 Reference value :  5.08420e-07
 Reference value :  5.09735e-07
 Reference value :  5.11696e-07
 Reference value :  5.13521e-07
 Reference value :  5.15544e-07
 Reference value :  5.17484e-07
 Reference value :  5.19713e-07
 Reference value :  5.24171e-07
 Reference value :  5.27127e-07
 Reference value :  5.30599e-07
 Reference value :  5.34415e-07
 Reference value :  5.38455e-07
 Reference value :  5.44683e-07
 Reference value :  5.50634e-07
 Reference value :  5.60342e-07
 Reference value :  5.74367e-07
 Reference value :  6.02416e-07
 Reference value :  6.58516e-07
 Reference value :  7.50100e-07
 Reference value :  7.50110e-07
 Reference value :  7.50130e-07
 Reference value :  7.50170e-07
 Reference value :  7.50200e-07
 Reference value :  7.50201e-07
 Reference value :  7.50202e-07
 Reference value :  7.50204e-07
 Reference value :  7.50208e-07
 Reference value :  7.50216e-07
 Reference value :  7.50233e-07
 Reference value :  7.50266e-07
 Reference value :  7.50333e-07
 Reference value :  7.50467e-07
 Reference value :  7.50644e-07
 Reference value :  7.50914e-07
 Reference value :  7.51453e-07
 Reference value :  7.52099e-07
 Reference value :  7.52800e-07
 Reference value :  7.53530e-07
 Reference value :  7.54427e-07
 Reference value :  7.55525e-07
 Reference value :  7.56676e-07
 Reference value :  7.57701e-07
 Reference value :  7.58795e-07
 Reference value :  7.59790e-07
 Reference value :  7.60838e-07
 Reference value :  7.62265e-07
 Reference value :  7.63777e-07
 Reference value :  7.66801e-07
 Reference value :  7.71905e-07
 Reference value :  7.79805e-07
 Reference value :  7.95121e-07
 Reference value :  8.19590e-07
 Reference value :  8.63778e-07
 Reference value :  9.43780e-07
 Reference value :  1.00000e-06
 Reference value :  1.00001e-06
 Reference value :  1.00003e-06
 Reference value :  1.00007e-06
 Reference value :  1.00010e-06
 Reference value :  1.00010e-06
 Reference value :  1.00010e-06
 Reference value :  1.00010e-06
 Reference value :  1.00011e-06
 Reference value :  1.00012e-06
 Reference value :  1.00013e-06
 Reference value :  1.00017e-06
 Reference value :  1.00023e-06
 Reference value :  1.00036e-06
 Reference value :  1.00056e-06
 Reference value :  1.00096e-06
 Reference value :  1.00147e-06
 Reference value :  1.00201e-06
 Reference value :  1.00276e-06
 Reference value :  1.00346e-06
 Reference value :  1.00420e-06
 Reference value :  1.00499e-06
 Reference value :  1.00587e-06
 Reference value :  1.00691e-06
 Reference value :  1.00774e-06
 Reference value :  1.00867e-06
 Reference value :  1.00966e-06
 Reference value :  1.01084e-06
 Reference value :  1.01249e-06
 Reference value :  1.01493e-06
 Reference value :  1.01837e-06
 Reference value :  1.02257e-06
 Reference value :  1.02578e-06
 Reference value :  1.02864e-06
 Reference value :  1.03084e-06
 Reference value :  1.03288e-06
 Reference value :  1.03524e-06
 Reference value :  1.03751e-06
 Reference value :  1.04006e-06
 Reference value :  1.04371e-06
 Reference value :  1.04765e-06
 Reference value :  1.05144e-06
 Reference value :  1.05490e-06
 Reference value :  1.05850e-06
 Reference value :  1.06138e-06
 Reference value :  1.06466e-06
 Reference value :  1.06829e-06
 Reference value :  1.07138e-06
 Reference value :  1.07465e-06
 Reference value :  1.07928e-06
 Reference value :  1.08444e-06
 Reference value :  1.09113e-06
 Reference value :  1.09791e-06
 Reference value :  1.10499e-06
 Reference value :  1.11253e-06
 Reference value :  1.12761e-06
 Reference value :  1.14973e-06
 Reference value :  1.18558e-06
 Reference value :  1.24993e-06
 Reference value :  1.25010e-06
 Reference value :  1.25010e-06
 Reference value :  1.25011e-06
 Reference value :  1.25012e-06
 Reference value :  1.25014e-06
 Reference value :  1.25018e-06
 Reference value :  1.25020e-06
 Reference value :  1.25020e-06
 Reference value :  1.25020e-06
 Reference value :  1.25020e-06
 Reference value :  1.25021e-06
 Reference value :  1.25021e-06
 Reference value :  1.25022e-06
 Reference value :  1.25025e-06
 Reference value :  1.25030e-06
 Reference value :  1.25040e-06
 Reference value :  1.25058e-06
 Reference value :  1.25078e-06
 Reference value :  1.25118e-06
 Reference value :  1.25180e-06
 Reference value :  1.25247e-06
 Reference value :  1.25315e-06
 Reference value :  1.25396e-06
 Reference value :  1.25500e-06
 Reference value :  1.25609e-06
 Reference value :  1.25696e-06
 Reference value :  1.25790e-06
 Reference value :  1.25886e-06
 Reference value :  1.26006e-06
 Reference value :  1.26134e-06
 Reference value :  1.26389e-06
 Reference value :  1.26733e-06
 Reference value :  1.27283e-06
 Reference value :  1.28359e-06
 Reference value :  1.29982e-06
 Reference value :  1.33019e-06
 Reference value :  1.38115e-06
 Reference value :  1.46897e-06
 Reference value :  1.50000e-06
 Reference value :  1.50001e-06
 Reference value :  1.50003e-06
 Reference value :  1.50007e-06
 Reference value :  1.50010e-06
 Reference value :  1.50010e-06
 Reference value :  1.50010e-06
 Reference value :  1.50010e-06
 Reference value :  1.50011e-06
 Reference value :  1.50012e-06
 Reference value :  1.50013e-06
 Reference value :  1.50017e-06
 Reference value :  1.50023e-06
 Reference value :  1.50036e-06
 Reference value :  1.50056e-06
 Reference value :  1.50095e-06
 Reference value :  1.50146e-06
 Reference value :  1.50200e-06
 Reference value :  1.50274e-06
 Reference value :  1.50343e-06
 Reference value :  1.50415e-06
 Reference value :  1.50499e-06
 Reference value :  1.50590e-06
 Reference value :  1.50697e-06
 Reference value :  1.50796e-06
 Reference value :  1.50952e-06
 Reference value :  1.51113e-06
 Reference value :  1.51314e-06
 Reference value :  1.51472e-06
 Reference value :  1.51642e-06
 Reference value :  1.51863e-06
 Reference value :  1.52094e-06
 Reference value :  1.52479e-06
 Reference value :  1.52992e-06
 Reference value :  1.53803e-06
 Reference value :  1.55099e-06
 Reference value :  1.57394e-06
 Reference value :  1.61791e-06
 Reference value :  1.69786e-06
 Reference value :  1.75010e-06
 Reference value :  1.75011e-06
 Reference value :  1.75013e-06
 Reference value :  1.75017e-06
 Reference value :  1.75020e-06
 Reference value :  1.75020e-06
 Reference value :  1.75020e-06
 Reference value :  1.75020e-06
 Reference value :  1.75021e-06
 Reference value :  1.75022e-06
 Reference value :  1.75023e-06
 Reference value :  1.75027e-06
 Reference value :  1.75033e-06
 Reference value :  1.75047e-06
 Reference value :  1.75064e-06
 Reference value :  1.75091e-06
 Reference value :  1.75145e-06
 Reference value :  1.75210e-06
 Reference value :  1.75288e-06
 Reference value :  1.75358e-06
 Reference value :  1.75454e-06
 Reference value :  1.75561e-06
 Reference value :  1.75653e-06
 Reference value :  1.75762e-06
 Reference value :  1.75853e-06
 Reference value :  1.75951e-06
 Reference value :  1.76064e-06
 Reference value :  1.76189e-06
 Reference value :  1.76338e-06
 Reference value :  1.76497e-06
 Reference value :  1.76741e-06
 Reference value :  1.77003e-06
 Reference value :  1.77438e-06
 Reference value :  1.78310e-06
 Reference value :  1.79620e-06
 Reference value :  1.82183e-06
 Reference value :  1.86514e-06
 Reference value :  1.94187e-06
 Reference value :  2.00000e-06
 Reference value :  2.00001e-06
 Reference value :  2.00003e-06
 Reference value :  2.00007e-06
 Reference value :  2.00010e-06
 Reference value :  2.00010e-06
 Reference value :  2.00010e-06
 Reference value :  2.00010e-06
 Reference value :  2.00011e-06
 Reference value :  2.00012e-06
 Reference value :  2.00013e-06
 Reference value :  2.00017e-06
 Reference value :  2.00023e-06
 Reference value :  2.00036e-06
 Reference value :  2.00056e-06
 Reference value :  2.00095e-06
 Reference value :  2.00146e-06
 Reference value :  2.00200e-06
 Reference value :  2.00275e-06
 Reference value :  2.00345e-06
 Reference value :  2.00418e-06
 Reference value :  2.00498e-06
 Reference value :  2.00586e-06
 Reference value :  2.00661e-06
 Reference value :  2.00746e-06
 Reference value :  2.00819e-06
 Reference value :  2.00904e-06
 Reference value :  2.01011e-06
 Reference value :  2.01122e-06
 Reference value :  2.01324e-06
 Reference value :  2.01537e-06
 Reference value :  2.01761e-06
 Reference value :  2.01983e-06
 Reference value :  2.02193e-06
 Reference value :  2.02420e-06
 Reference value :  2.02602e-06
 Reference value :  2.02745e-06
 Reference value :  2.02898e-06
 Reference value :  2.03071e-06
 Reference value :  2.03260e-06
 Reference value :  2.03465e-06
 Reference value :  2.03766e-06
 Reference value :  2.04137e-06
 Reference value :  2.04878e-06
 Reference value :  2.05947e-06
 Reference value :  2.07821e-06
 Reference value :  2.11468e-06
 Reference value :  2.16906e-06
 Reference value :  2.23089e-06
 Reference value :  2.25010e-06
 Reference value :  2.25011e-06
 Reference value :  2.25013e-06
 Reference value :  2.25017e-06
 Reference value :  2.25020e-06
 Reference value :  2.25020e-06
 Reference value :  2.25020e-06
 Reference value :  2.25020e-06
 Reference value :  2.25021e-06
 Reference value :  2.25022e-06
 Reference value :  2.25023e-06
 Reference value :  2.25027e-06
 Reference value :  2.25033e-06
 Reference value :  2.25047e-06
 Reference value :  2.25064e-06
 Reference value :  2.25091e-06
 Reference value :  2.25145e-06
 Reference value :  2.25210e-06
 Reference value :  2.25288e-06
 Reference value :  2.25358e-06
 Reference value :  2.25454e-06
 Reference value :  2.25561e-06
 Reference value :  2.25657e-06
 Reference value :  2.25770e-06
 Reference value :  2.25878e-06
 Reference value :  2.26032e-06
 Reference value :  2.26244e-06
 Reference value :  2.26495e-06
 Reference value :  2.26889e-06
 Reference value :  2.27528e-06
 Reference value :  2.28632e-06
 Reference value :  2.30430e-06
 Reference value :  2.34028e-06
 Reference value :  2.40124e-06
 Reference value :  2.46652e-06
 Reference value :  2.50000e-06
 Reference value :  2.50001e-06
 Reference value :  2.50003e-06
 Reference value :  2.50007e-06
 Reference value :  2.50010e-06
 Reference value :  2.50010e-06
 Reference value :  2.50010e-06
 Reference value :  2.50010e-06
 Reference value :  2.50011e-06
 Reference value :  2.50012e-06
 Reference value :  2.50013e-06
 Reference value :  2.50017e-06
 Reference value :  2.50023e-06
 Reference value :  2.50036e-06
 Reference value :  2.50055e-06
 Reference value :  2.50091e-06
 Reference value :  2.50141e-06
 Reference value :  2.50194e-06
 Reference value :  2.50259e-06
 Reference value :  2.50328e-06
 Reference value :  2.50395e-06
 Reference value :  2.50471e-06
 Reference value :  2.50557e-06
 Reference value :  2.50642e-06
 Reference value :  2.50765e-06
 Reference value :  2.50889e-06
 Reference value :  2.51091e-06
 Reference value :  2.51240e-06
 Reference value :  2.51392e-06
 Reference value :  2.51550e-06
 Reference value :  2.51724e-06
 Reference value :  2.51903e-06
 Reference value :  2.52259e-06
 Reference value :  2.52726e-06
 Reference value :  2.53604e-06
 Reference value :  2.55141e-06
 Reference value :  2.57945e-06
 Reference value :  2.63553e-06
 Reference value :  2.74768e-06
 Reference value :  2.75010e-06
 Reference value :  2.75011e-06
 Reference value :  2.75013e-06
 Reference value :  2.75017e-06
 Reference value :  2.75020e-06
 Reference value :  2.75020e-06
 Reference value :  2.75020e-06
 Reference value :  2.75020e-06
 Reference value :  2.75021e-06
 Reference value :  2.75022e-06
 Reference value :  2.75023e-06
 Reference value :  2.75027e-06
 Reference value :  2.75033e-06
 Reference value :  2.75047e-06
 Reference value :  2.75064e-06
 Reference value :  2.75091e-06
 Reference value :  2.75145e-06
 Reference value :  2.75210e-06
 Reference value :  2.75287e-06
 Reference value :  2.75358e-06
 Reference value :  2.75456e-06
 Reference value :  2.75562e-06
 Reference value :  2.75658e-06
 Reference value :  2.75747e-06
 Reference value :  2.75843e-06
 Reference value :  2.75958e-06
 Reference value :  2.76082e-06
 Reference value :  2.76219e-06
 Reference value :  2.76377e-06
 Reference value :  2.76611e-06
 Reference value :  2.76872e-06
 Reference value :  2.77303e-06
 Reference value :  2.78000e-06
 Reference value :  2.79393e-06
 Reference value :  2.81838e-06
 Reference value :  2.86415e-06
 Reference value :  2.94974e-06
 Reference value :  3.00000e-06
 Reference value :  3.00001e-06
 Reference value :  3.00003e-06
 Reference value :  3.00007e-06
 Reference value :  3.00010e-06
 Reference value :  3.00010e-06
 Reference value :  3.00010e-06
 Reference value :  3.00010e-06
 Reference value :  3.00011e-06
 Reference value :  3.00012e-06
 Reference value :  3.00013e-06
 Reference value :  3.00017e-06
 Reference value :  3.00023e-06
 Reference value :  3.00036e-06
 Reference value :  3.00055e-06
 Reference value :  3.00091e-06
 Reference value :  3.00141e-06
 Reference value :  3.00194e-06
 Reference value :  3.00269e-06
 Reference value :  3.00338e-06
 Reference value :  3.00409e-06
 Reference value :  3.00486e-06
 Reference value :  3.00572e-06
 Reference value :  3.00652e-06
 Reference value :  3.00735e-06
 Reference value :  3.00811e-06
 Reference value :  3.00895e-06
 Reference value :  3.01008e-06
 Reference value :  3.01115e-06
 Reference value :  3.01303e-06
 Reference value :  3.01515e-06
 Reference value :  3.01680e-06
 Reference value :  3.01863e-06
 Reference value :  3.02048e-06
 Reference value :  3.02249e-06
 Reference value :  3.02397e-06
 Reference value :  3.02540e-06
 Reference value :  3.02673e-06
 Reference value :  3.02818e-06
 Reference value :  3.02987e-06
 Reference value :  3.03174e-06
 Reference value :  3.03449e-06
 Reference value :  3.03796e-06
 Reference value :  3.04491e-06
 Reference value :  3.05587e-06
 Reference value :  3.07591e-06
 Reference value :  3.09866e-06
 Reference value :  3.14418e-06
 Reference value :  3.20550e-06
 Reference value :  3.25010e-06
 Reference value :  3.25011e-06
 Reference value :  3.25013e-06
 Reference value :  3.25017e-06
 Reference value :  3.25020e-06
 Reference value :  3.25020e-06
 Reference value :  3.25020e-06
 Reference value :  3.25020e-06
 Reference value :  3.25021e-06
 Reference value :  3.25022e-06
 Reference value :  3.25023e-06
 Reference value :  3.25027e-06
 Reference value :  3.25033e-06
 Reference value :  3.25047e-06
 Reference value :  3.25064e-06
 Reference value :  3.25091e-06
 Reference value :  3.25145e-06
 Reference value :  3.25210e-06
 Reference value :  3.25287e-06
 Reference value :  3.25358e-06
 Reference value :  3.25455e-06
 Reference value :  3.25561e-06
 Reference value :  3.25651e-06
 Reference value :  3.25748e-06
 Reference value :  3.25847e-06
 Reference value :  3.25988e-06
 Reference value :  3.26135e-06
 Reference value :  3.26400e-06
 Reference value :  3.26733e-06
 Reference value :  3.27267e-06
 Reference value :  3.28334e-06
 Reference value :  3.29951e-06
 Reference value :  3.33185e-06
 Reference value :  3.39653e-06
 Reference value :  3.50000e-06
 Reference value :  3.50001e-06
 Reference value :  3.50003e-06
 Reference value :  3.50007e-06
 Reference value :  3.50010e-06
 Reference value :  3.50010e-06
 Reference value :  3.50010e-06
 Reference value :  3.50010e-06
 Reference value :  3.50011e-06
 Reference value :  3.50012e-06
 Reference value :  3.50013e-06
 Reference value :  3.50017e-06
 Reference value :  3.50023e-06
 Reference value :  3.50036e-06
 Reference value :  3.50055e-06
 Reference value :  3.50091e-06
 Reference value :  3.50141e-06
 Reference value :  3.50194e-06
 Reference value :  3.50269e-06
 Reference value :  3.50338e-06
 Reference value :  3.50410e-06
 Reference value :  3.50490e-06
 Reference value :  3.50579e-06
 Reference value :  3.50677e-06
 Reference value :  3.50802e-06
 Reference value :  3.50965e-06
 Reference value :  3.51115e-06
 Reference value :  3.51289e-06
 Reference value :  3.51453e-06
 Reference value :  3.51641e-06
 Reference value :  3.51820e-06
 Reference value :  3.52051e-06
 Reference value :  3.52403e-06
 Reference value :  3.52930e-06
 Reference value :  3.53843e-06
 Reference value :  3.55518e-06
 Reference value :  3.58485e-06
 Reference value :  3.64157e-06
 Reference value :  3.75010e-06
 Reference value :  3.75011e-06
 Reference value :  3.75013e-06
 Reference value :  3.75017e-06
 Reference value :  3.75020e-06
 Reference value :  3.75020e-06
 Reference value :  3.75020e-06
 Reference value :  3.75020e-06
 Reference value :  3.75021e-06
 Reference value :  3.75022e-06
 Reference value :  3.75023e-06
 Reference value :  3.75027e-06
 Reference value :  3.75033e-06
 Reference value :  3.75047e-06
 Reference value :  3.75064e-06
 Reference value :  3.75091e-06
 Reference value :  3.75145e-06
 Reference value :  3.75211e-06
 Reference value :  3.75288e-06
 Reference value :  3.75358e-06
 Reference value :  3.75455e-06
 Reference value :  3.75561e-06
 Reference value :  3.75651e-06
 Reference value :  3.75749e-06
 Reference value :  3.75842e-06
 Reference value :  3.75945e-06
 Reference value :  3.76061e-06
 Reference value :  3.76199e-06
 Reference value :  3.76345e-06
 Reference value :  3.76593e-06
 Reference value :  3.76847e-06
 Reference value :  3.77208e-06
 Reference value :  3.77721e-06
 Reference value :  3.78747e-06
 Reference value :  3.80799e-06
 Reference value :  3.84903e-06
 Reference value :  3.93112e-06
 Reference value :  4.00000e-06
 Reference value :  4.00001e-06
 Reference value :  4.00003e-06
 Reference value :  4.00007e-06
 Reference value :  4.00010e-06
 Reference value :  4.00010e-06
 Reference value :  4.00010e-06
 Reference value :  4.00010e-06
 Reference value :  4.00011e-06
 Reference value :  4.00012e-06
 Reference value :  4.00013e-06
 Reference value :  4.00017e-06
 Reference value :  4.00023e-06
 Reference value :  4.00036e-06
 Reference value :  4.00055e-06
 Reference value :  4.00091e-06
 Reference value :  4.00141e-06
 Reference value :  4.00194e-06
 Reference value :  4.00269e-06
 Reference value :  4.00337e-06
 Reference value :  4.00409e-06
 Reference value :  4.00487e-06
 Reference value :  4.00575e-06
 Reference value :  4.00648e-06
 Reference value :  4.00727e-06
 Reference value :  4.00802e-06
 Reference value :  4.00888e-06
 Reference value :  4.00970e-06
 Reference value :  4.01095e-06
 Reference value :  4.01209e-06
 Reference value :  4.01418e-06
 Reference value :  4.01639e-06
 Reference value :  4.01810e-06
 Reference value :  4.01998e-06
 Reference value :  4.02247e-06
 Reference value :  4.02454e-06
 Reference value :  4.02612e-06
 Reference value :  4.02759e-06
 Reference value :  4.02919e-06
 Reference value :  4.03082e-06
 Reference value :  4.03271e-06
 Reference value :  4.03582e-06
 Reference value :  4.03887e-06
 Reference value :  4.04496e-06
 Reference value :  4.05475e-06
 Reference value :  4.07038e-06
 Reference value :  4.09009e-06
 Reference value :  4.10809e-06
 Reference value :  4.12939e-06
 Reference value :  4.14457e-06
 Reference value :  4.15955e-06
 Reference value :  4.17506e-06
 Reference value :  4.19387e-06
 Reference value :  4.21594e-06
 Reference value :  4.25010e-06
 Reference value :  4.25011e-06
 Reference value :  4.25013e-06
 Reference value :  4.25017e-06
 Reference value :  4.25020e-06
 Reference value :  4.25020e-06
 Reference value :  4.25020e-06
 Reference value :  4.25020e-06
 Reference value :  4.25021e-06
 Reference value :  4.25022e-06
 Reference value :  4.25023e-06
 Reference value :  4.25027e-06
 Reference value :  4.25033e-06
 Reference value :  4.25042e-06
 Reference value :  4.25058e-06
 Reference value :  4.25077e-06
 Reference value :  4.25109e-06
 Reference value :  4.25172e-06
 Reference value :  4.25234e-06
 Reference value :  4.25304e-06
 Reference value :  4.25378e-06
 Reference value :  4.25472e-06
 Reference value :  4.25553e-06
 Reference value :  4.25646e-06
 Reference value :  4.25737e-06
 Reference value :  4.25833e-06
 Reference value :  4.25987e-06
 Reference value :  4.26143e-06
 Reference value :  4.26405e-06
 Reference value :  4.26740e-06
 Reference value :  4.27268e-06
 Reference value :  4.28323e-06
 Reference value :  4.30433e-06
 Reference value :  4.34654e-06
 Reference value :  4.43095e-06
 Reference value :  4.50000e-06
 Reference value :  4.50001e-06
 Reference value :  4.50003e-06
 Reference value :  4.50007e-06
 Reference value :  4.50010e-06
 Reference value :  4.50010e-06
 Reference value :  4.50010e-06
 Reference value :  4.50010e-06
 Reference value :  4.50011e-06
 Reference value :  4.50012e-06
 Reference value :  4.50013e-06
 Reference value :  4.50017e-06
 Reference value :  4.50023e-06
 Reference value :  4.50036e-06
 Reference value :  4.50063e-06
 Reference value :  4.50110e-06
 Reference value :  4.50176e-06
 Reference value :  4.50247e-06
 Reference value :  4.50308e-06
 Reference value :  4.50385e-06
 Reference value :  4.50481e-06
 Reference value :  4.50576e-06
 Reference value :  4.50671e-06
 Reference value :  4.50785e-06
 Reference value :  4.50929e-06
 Reference value :  4.51101e-06
 Reference value :  4.51235e-06
 Reference value :  4.51379e-06
 Reference value :  4.51522e-06
 Reference value :  4.51690e-06
 Reference value :  4.51867e-06
 Reference value :  4.52192e-06
 Reference value :  4.52664e-06
 Reference value :  4.53550e-06
 Reference value :  4.55230e-06
 Reference value :  4.58169e-06
 Reference value :  4.64048e-06
 Reference value :  4.75010e-06
 Reference value :  4.75011e-06
 Reference value :  4.75013e-06
 Reference value :  4.75017e-06
 Reference value :  4.75020e-06
 Reference value :  4.75020e-06
 Reference value :  4.75020e-06
 Reference value :  4.75020e-06
 Reference value :  4.75021e-06
 Reference value :  4.75022e-06
 Reference value :  4.75023e-06
 Reference value :  4.75027e-06
 Reference value :  4.75033e-06
 Reference value :  4.75042e-06
 Reference value :  4.75058e-06
 Reference value :  4.75077e-06
 Reference value :  4.75108e-06
 Reference value :  4.75171e-06
 Reference value :  4.75233e-06
 Reference value :  4.75303e-06
 Reference value :  4.75377e-06
 Reference value :  4.75471e-06
 Reference value :  4.75554e-06
 Reference value :  4.75647e-06
 Reference value :  4.75728e-06
 Reference value :  4.75818e-06
 Reference value :  4.75921e-06
 Reference value :  4.76036e-06
 Reference value :  4.76178e-06
 Reference value :  4.76326e-06
 Reference value :  4.76563e-06
 Reference value :  4.76814e-06
 Reference value :  4.77193e-06
 Reference value :  4.77714e-06
 Reference value :  4.78755e-06
 Reference value :  4.80838e-06
 Reference value :  4.85003e-06
 Reference value :  4.93333e-06
 Reference value :  5.00000e-06
 Reference value :  5.00001e-06
 Reference value :  5.00003e-06
 Reference value :  5.00007e-06
 Reference value :  5.00010e-06
 Reference value :  5.00010e-06
 Reference value :  5.00010e-06
 Reference value :  5.00010e-06
 Reference value :  5.00011e-06
 Reference value :  5.00012e-06
 Reference value :  5.00013e-06
 Reference value :  5.00017e-06
 Reference value :  5.00023e-06
 Reference value :  5.00036e-06
 Reference value :  5.00063e-06
 Reference value :  5.00109e-06
 Reference value :  5.00175e-06
 Reference value :  5.00247e-06
 Reference value :  5.00309e-06
 Reference value :  5.00385e-06
 Reference value :  5.00471e-06
 Reference value :  5.00560e-06
 Reference value :  5.00636e-06
 Reference value :  5.00717e-06
 Reference value :  5.00788e-06
 Reference value :  5.00868e-06
 Reference value :  5.00965e-06
 Reference value :  5.01074e-06
 Reference value :  5.01293e-06
 Reference value :  5.01509e-06
 Reference value :  5.01736e-06
 Reference value :  5.01948e-06
 Reference value :  5.02163e-06
 Reference value :  5.02397e-06
 Reference value :  5.02621e-06
 Reference value :  5.02791e-06
 Reference value :  5.02951e-06
 Reference value :  5.03109e-06
 Reference value :  5.03274e-06
 Reference value :  5.03464e-06
 Reference value :  5.03791e-06
 Reference value :  5.04089e-06
 Reference value :  5.04684e-06
 Reference value :  5.05478e-06
 Reference value :  5.06227e-06
 Reference value :  5.07043e-06
 Reference value :  5.07976e-06
 Reference value :  5.09124e-06
 Reference value :  5.10432e-06
 Reference value :  5.12808e-06
 Reference value :  5.14557e-06
 Reference value :  5.16249e-06
 Reference value :  5.17596e-06
 Reference value :  5.19276e-06
 Reference value :  5.22637e-06
 Reference value :  5.25010e-06
 Reference value :  5.25011e-06
 Reference value :  5.25013e-06
 Reference value :  5.25017e-06
 Reference value :  5.25020e-06
 Reference value :  5.25020e-06
 Reference value :  5.25020e-06
 Reference value :  5.25020e-06
 Reference value :  5.25021e-06
 Reference value :  5.25022e-06
 Reference value :  5.25023e-06
 Reference value :  5.25027e-06
 Reference value :  5.25033e-06
 Reference value :  5.25042e-06
 Reference value :  5.25058e-06
 Reference value :  5.25076e-06
 Reference value :  5.25108e-06
 Reference value :  5.25172e-06
 Reference value :  5.25234e-06
 Reference value :  5.25305e-06
 Reference value :  5.25379e-06
 Reference value :  5.25473e-06
 Reference value :  5.25576e-06
 Reference value :  5.25651e-06
 Reference value :  5.25739e-06
 Reference value :  5.25836e-06
 Reference value :  5.25949e-06
 Reference value :  5.26069e-06
 Reference value :  5.26309e-06
 Reference value :  5.26620e-06
 Reference value :  5.27070e-06
 Reference value :  5.27928e-06
 Reference value :  5.29645e-06
 Reference value :  5.33078e-06
 Reference value :  5.37485e-06
 Reference value :  5.43906e-06
 Reference value :  5.50000e-06
 Reference value :  5.50001e-06
 Reference value :  5.50003e-06
 Reference value :  5.50007e-06
 Reference value :  5.50010e-06
 Reference value :  5.50010e-06
 Reference value :  5.50010e-06
 Reference value :  5.50010e-06
 Reference value :  5.50011e-06
 Reference value :  5.50012e-06
 Reference value :  5.50013e-06
 Reference value :  5.50017e-06
 Reference value :  5.50023e-06
 Reference value :  5.50036e-06
 Reference value :  5.50063e-06
 Reference value :  5.50110e-06
 Reference value :  5.50176e-06
 Reference value :  5.50247e-06
 Reference value :  5.50308e-06
 Reference value :  5.50385e-06
 Reference value :  5.50481e-06
 Reference value :  5.50576e-06
 Reference value :  5.50670e-06
 Reference value :  5.50778e-06
 Reference value :  5.50921e-06
 Reference value :  5.51077e-06
 Reference value :  5.51230e-06
 Reference value :  5.51365e-06
 Reference value :  5.51516e-06
 Reference value :  5.51685e-06
 Reference value :  5.51860e-06
 Reference value :  5.52210e-06
 Reference value :  5.52700e-06
 Reference value :  5.53674e-06
 Reference value :  5.55412e-06
 Reference value :  5.58414e-06
 Reference value :  5.64419e-06
 Reference value :  5.75010e-06
 Reference value :  5.75011e-06
 Reference value :  5.75013e-06
 Reference value :  5.75017e-06
 Reference value :  5.75020e-06
 Reference value :  5.75020e-06
 Reference value :  5.75020e-06
 Reference value :  5.75020e-06
 Reference value :  5.75021e-06
 Reference value :  5.75022e-06
 Reference value :  5.75023e-06
 Reference value :  5.75027e-06
 Reference value :  5.75033e-06
 Reference value :  5.75041e-06
 Reference value :  5.75058e-06
 Reference value :  5.75077e-06
 Reference value :  5.75108e-06
 Reference value :  5.75170e-06
 Reference value :  5.75233e-06
 Reference value :  5.75303e-06
 Reference value :  5.75376e-06
 Reference value :  5.75470e-06
 Reference value :  5.75573e-06
 Reference value :  5.75648e-06
 Reference value :  5.75736e-06
 Reference value :  5.75836e-06
 Reference value :  5.75928e-06
 Reference value :  5.76040e-06
 Reference value :  5.76162e-06
 Reference value :  5.76311e-06
 Reference value :  5.76466e-06
 Reference value :  5.76685e-06
 Reference value :  5.76933e-06
 Reference value :  5.77352e-06
 Reference value :  5.78111e-06
 Reference value :  5.79272e-06
 Reference value :  5.81409e-06
 Reference value :  5.84924e-06
 Reference value :  5.90991e-06
 Reference value :  6.00000e-06
 Reference value :  6.00001e-06
 Reference value :  6.00003e-06
 Reference value :  6.00007e-06
 Reference value :  6.00010e-06
 Reference value :  6.00010e-06
 Reference value :  6.00010e-06
 Reference value :  6.00010e-06
 Reference value :  6.00011e-06
 Reference value :  6.00012e-06
 Reference value :  6.00013e-06
 Reference value :  6.00017e-06
 Reference value :  6.00023e-06
 Reference value :  6.00036e-06
 Reference value :  6.00063e-06
 Reference value :  6.00109e-06
 Reference value :  6.00175e-06
 Reference value :  6.00247e-06
 Reference value :  6.00309e-06
 Reference value :  6.00385e-06
 Reference value :  6.00482e-06
 Reference value :  6.00571e-06
 Reference value :  6.00666e-06
 Reference value :  6.00762e-06
 Reference value :  6.00855e-06
 Reference value :  6.00956e-06
 Reference value :  6.01080e-06
 Reference value :  6.01201e-06
 Reference value :  6.01443e-06
 Reference value :  6.01700e-06
 Reference value :  6.01888e-06
 Reference value :  6.02103e-06
 Reference value :  6.02328e-06
 Reference value :  6.02591e-06
 Reference value :  6.02800e-06
 Reference value :  6.02952e-06
 Reference value :  6.03119e-06
 Reference value :  6.03303e-06
 Reference value :  6.03512e-06
 Reference value :  6.03727e-06
 Reference value :  6.04036e-06
 Reference value :  6.04473e-06
 Reference value :  6.05020e-06
 Reference value :  6.05576e-06
 Reference value :  6.06236e-06
 Reference value :  6.07297e-06
 Reference value :  6.07919e-06
 Reference value :  6.08610e-06
 Reference value :  6.09644e-06
 Reference value :  6.10689e-06
 Reference value :  6.12307e-06
 Reference value :  6.14136e-06
 Reference value :  6.16277e-06
 Reference value :  6.20560e-06
 Reference value :  6.25010e-06
 Reference value :  6.25011e-06
 Reference value :  6.25013e-06
 Reference value :  6.25017e-06
 Reference value :  6.25020e-06
 Reference value :  6.25020e-06
 Reference value :  6.25020e-06
 Reference value :  6.25020e-06
 Reference value :  6.25021e-06
 Reference value :  6.25022e-06
 Reference value :  6.25023e-06
 Reference value :  6.25027e-06
 Reference value :  6.25033e-06
 Reference value :  6.25041e-06
 Reference value :  6.25058e-06
 Reference value :  6.25076e-06
 Reference value :  6.25106e-06
 Reference value :  6.25166e-06
 Reference value :  6.25229e-06
 Reference value :  6.25299e-06
 Reference value :  6.25371e-06
 Reference value :  6.25464e-06
 Reference value :  6.25566e-06
 Reference value :  6.25692e-06
 Reference value :  6.25795e-06
 Reference value :  6.25904e-06
 Reference value :  6.26020e-06
 Reference value :  6.26203e-06
 Reference value :  6.26377e-06
 Reference value :  6.26724e-06
 Reference value :  6.27219e-06
 Reference value :  6.28076e-06
 Reference value :  6.29696e-06
 Reference value :  6.32426e-06
 Reference value :  6.35067e-06
 Reference value :  6.37582e-06
 Reference value :  6.39888e-06
 Reference value :  6.42680e-06
 Reference value :  6.45395e-06
 Reference value :  6.50000e-06
 Reference value :  6.50001e-06
 Reference value :  6.50003e-06
 Reference value :  6.50007e-06
 Reference value :  6.50010e-06
 Reference value :  6.50010e-06
 Reference value :  6.50010e-06
 Reference value :  6.50010e-06
 Reference value :  6.50011e-06
 Reference value :  6.50012e-06
 Reference value :  6.50013e-06
 Reference value :  6.50017e-06
 Reference value :  6.50023e-06
 Reference value :  6.50036e-06
 Reference value :  6.50063e-06
 Reference value :  6.50110e-06
 Reference value :  6.50176e-06
 Reference value :  6.50246e-06
 Reference value :  6.50308e-06
 Reference value :  6.50385e-06
 Reference value :  6.50480e-06
 Reference value :  6.50576e-06
 Reference value :  6.50669e-06
 Reference value :  6.50775e-06
 Reference value :  6.50886e-06
 Reference value :  6.51078e-06
 Reference value :  6.51259e-06
 Reference value :  6.51405e-06
 Reference value :  6.51568e-06
 Reference value :  6.51752e-06
 Reference value :  6.51951e-06
 Reference value :  6.52310e-06
 Reference value :  6.52805e-06
 Reference value :  6.53715e-06
 Reference value :  6.55218e-06
 Reference value :  6.58217e-06
 Reference value :  6.63633e-06
 Reference value :  6.73889e-06
 Reference value :  6.75010e-06
 Reference value :  6.75011e-06
 Reference value :  6.75013e-06
 Reference value :  6.75017e-06
 Reference value :  6.75020e-06
 Reference value :  6.75020e-06
 Reference value :  6.75020e-06
 Reference value :  6.75020e-06
 Reference value :  6.75021e-06
 Reference value :  6.75022e-06
 Reference value :  6.75023e-06
 Reference value :  6.75027e-06
 Reference value :  6.75033e-06
 Reference value :  6.75041e-06
 Reference value :  6.75058e-06
 Reference value :  6.75080e-06
 Reference value :  6.75107e-06
 Reference value :  6.75163e-06
 Reference value :  6.75225e-06
 Reference value :  6.75292e-06
 Reference value :  6.75364e-06
 Reference value :  6.75457e-06
 Reference value :  6.75558e-06
 Reference value :  6.75681e-06
 Reference value :  6.75777e-06
 Reference value :  6.75882e-06
 Reference value :  6.75984e-06
 Reference value :  6.76095e-06
 Reference value :  6.76217e-06
 Reference value :  6.76348e-06
 Reference value :  6.76498e-06
 Reference value :  6.76746e-06
 Reference value :  6.77013e-06
 Reference value :  6.77423e-06
 Reference value :  6.78055e-06
 Reference value :  6.79320e-06
 Reference value :  6.81807e-06
 Reference value :  6.86325e-06
 Reference value :  6.95361e-06
 Reference value :  7.00000e-06
 Reference value :  7.00001e-06
 Reference value :  7.00003e-06
 Reference value :  7.00007e-06
 Reference value :  7.00010e-06
 Reference value :  7.00010e-06
 Reference value :  7.00010e-06
 Reference value :  7.00010e-06
 Reference value :  7.00011e-06
 Reference value :  7.00012e-06
 Reference value :  7.00013e-06
 Reference value :  7.00017e-06
 Reference value :  7.00023e-06
 Reference value :  7.00036e-06
 Reference value :  7.00063e-06
 Reference value :  7.00109e-06
 Reference value :  7.00176e-06
 Reference value :  7.00246e-06
 Reference value :  7.00309e-06
 Reference value :  7.00385e-06
 Reference value :  7.00481e-06
 Reference value :  7.00571e-06
 Reference value :  7.00665e-06
 Reference value :  7.00739e-06
 Reference value :  7.00824e-06
 Reference value :  7.00911e-06
 Reference value :  7.00996e-06
 Reference value :  7.01105e-06
 Reference value :  7.01223e-06
 Reference value :  7.01457e-06
 Reference value :  7.01755e-06
 Reference value :  7.01959e-06
 Reference value :  7.02189e-06
 Reference value :  7.02395e-06
 Reference value :  7.02616e-06
 Reference value :  7.02807e-06
 Reference value :  7.03001e-06
 Reference value :  7.03175e-06
 Reference value :  7.03344e-06
 Reference value :  7.03577e-06
 Reference value :  7.03743e-06
 Reference value :  7.03925e-06
 Reference value :  7.04147e-06
 Reference value :  7.04393e-06
 Reference value :  7.04854e-06
 Reference value :  7.05471e-06
 Reference value :  7.06027e-06
 Reference value :  7.07138e-06
 Reference value :  7.09218e-06
 Reference value :  7.12613e-06
 Reference value :  7.19403e-06
 Reference value :  7.25010e-06
 Reference value :  7.25011e-06
 Reference value :  7.25013e-06
 Reference value :  7.25017e-06
 Reference value :  7.25020e-06
 Reference value :  7.25020e-06
 Reference value :  7.25020e-06
 Reference value :  7.25020e-06
 Reference value :  7.25021e-06
 Reference value :  7.25022e-06
 Reference value :  7.25023e-06
 Reference value :  7.25027e-06
 Reference value :  7.25033e-06
 Reference value :  7.25042e-06
 Reference value :  7.25059e-06
 Reference value :  7.25077e-06
 Reference value :  7.25107e-06
 Reference value :  7.25167e-06
 Reference value :  7.25229e-06
 Reference value :  7.25299e-06
 Reference value :  7.25372e-06
 Reference value :  7.25465e-06
 Reference value :  7.25566e-06
 Reference value :  7.25662e-06
 Reference value :  7.25771e-06
 Reference value :  7.25883e-06
 Reference value :  7.25994e-06
 Reference value :  7.26170e-06
 Reference value :  7.26366e-06
 Reference value :  7.26732e-06
 Reference value :  7.27237e-06
 Reference value :  7.28245e-06
 Reference value :  7.30097e-06
 Reference value :  7.33601e-06
 Reference value :  7.40608e-06
 Reference value :  7.50000e-06
 Reference value :  7.50001e-06
 Reference value :  7.50003e-06
 Reference value :  7.50007e-06
 Reference value :  7.50010e-06
 Reference value :  7.50010e-06
 Reference value :  7.50010e-06
 Reference value :  7.50010e-06
 Reference value :  7.50011e-06
 Reference value :  7.50012e-06
 Reference value :  7.50013e-06
 Reference value :  7.50017e-06
 Reference value :  7.50023e-06
 Reference value :  7.50036e-06
 Reference value :  7.50063e-06
 Reference value :  7.50110e-06
 Reference value :  7.50172e-06
 Reference value :  7.50245e-06
 Reference value :  7.50308e-06
 Reference value :  7.50384e-06
 Reference value :  7.50479e-06
 Reference value :  7.50575e-06
 Reference value :  7.50668e-06
 Reference value :  7.50785e-06
 Reference value :  7.50906e-06
 Reference value :  7.51093e-06
 Reference value :  7.51293e-06
 Reference value :  7.51465e-06
 Reference value :  7.51645e-06
 Reference value :  7.51877e-06
 Reference value :  7.52119e-06
 Reference value :  7.52529e-06
 Reference value :  7.53097e-06
 Reference value :  7.54042e-06
 Reference value :  7.55662e-06
 Reference value :  7.58285e-06
 Reference value :  7.63096e-06
 Reference value :  7.71741e-06
 Reference value :  7.75010e-06
 Reference value :  7.75011e-06
 Reference value :  7.75013e-06
 Reference value :  7.75017e-06
 Reference value :  7.75020e-06
 Reference value :  7.75020e-06
 Reference value :  7.75020e-06
 Reference value :  7.75020e-06
 Reference value :  7.75021e-06
 Reference value :  7.75022e-06
 Reference value :  7.75023e-06
 Reference value :  7.75027e-06
 Reference value :  7.75033e-06
 Reference value :  7.75042e-06
 Reference value :  7.75059e-06
 Reference value :  7.75082e-06
 Reference value :  7.75109e-06
 Reference value :  7.75165e-06
 Reference value :  7.75226e-06
 Reference value :  7.75292e-06
 Reference value :  7.75365e-06
 Reference value :  7.75457e-06
 Reference value :  7.75558e-06
 Reference value :  7.75658e-06
 Reference value :  7.75763e-06
 Reference value :  7.75858e-06
 Reference value :  7.75957e-06
 Reference value :  7.76064e-06
 Reference value :  7.76189e-06
 Reference value :  7.76437e-06
 Reference value :  7.76854e-06
 Reference value :  7.77498e-06
 Reference value :  7.78786e-06
 Reference value :  7.81362e-06
 Reference value :  7.86514e-06
 Reference value :  7.96817e-06
 Reference value :  8.00000e-06
 Reference value :  8.00001e-06
 Reference value :  8.00003e-06
 Reference value :  8.00007e-06
 Reference value :  8.00010e-06
 Reference value :  8.00010e-06
 Reference value :  8.00010e-06
 Reference value :  8.00010e-06
 Reference value :  8.00011e-06
 Reference value :  8.00012e-06
 Reference value :  8.00013e-06
 Reference value :  8.00017e-06
 Reference value :  8.00023e-06
 Reference value :  8.00036e-06
 Reference value :  8.00063e-06
 Reference value :  8.00110e-06
 Reference value :  8.00172e-06
 Reference value :  8.00245e-06
 Reference value :  8.00308e-06
 Reference value :  8.00385e-06
 Reference value :  8.00482e-06
 Reference value :  8.00575e-06
 Reference value :  8.00670e-06
 Reference value :  8.00756e-06
 Reference value :  8.00850e-06
 Reference value :  8.00954e-06
 Reference value :  8.01069e-06
 Reference value :  8.01242e-06
 Reference value :  8.01395e-06
 Reference value :  8.01557e-06
 Reference value :  8.01724e-06
 Reference value :  8.01905e-06
 Reference value :  8.02268e-06
 Reference value :  8.02811e-06
 Reference value :  8.03700e-06
 Reference value :  8.05480e-06
 Reference value :  8.09039e-06
 Reference value :  8.16158e-06
 Reference value :  8.25010e-06
 Reference value :  8.25011e-06
 Reference value :  8.25013e-06
 Reference value :  8.25017e-06
 Reference value :  8.25020e-06
 Reference value :  8.25020e-06
 Reference value :  8.25020e-06
 Reference value :  8.25020e-06
 Reference value :  8.25021e-06
 Reference value :  8.25022e-06
 Reference value :  8.25023e-06
 Reference value :  8.25027e-06
 Reference value :  8.25033e-06
 Reference value :  8.25047e-06
 Reference value :  8.25064e-06
 Reference value :  8.25085e-06
 Reference value :  8.25127e-06
 Reference value :  8.25193e-06
 Reference value :  8.25261e-06
 Reference value :  8.25331e-06
 Reference value :  8.25422e-06
 Reference value :  8.25545e-06
 Reference value :  8.25660e-06
 Reference value :  8.25789e-06
 Reference value :  8.25953e-06
 Reference value :  8.26158e-06
 Reference value :  8.26424e-06
 Reference value :  8.26765e-06
 Reference value :  8.27258e-06
 Reference value :  8.28243e-06
 Reference value :  8.29637e-06
 Reference value :  8.32425e-06
 Reference value :  8.38001e-06
 Reference value :  8.48573e-06
 Reference value :  8.50000e-06
 Reference value :  8.50001e-06
 Reference value :  8.50003e-06
 Reference value :  8.50007e-06
 Reference value :  8.50010e-06
 Reference value :  8.50010e-06
 Reference value :  8.50010e-06
 Reference value :  8.50010e-06
 Reference value :  8.50011e-06
 Reference value :  8.50012e-06
 Reference value :  8.50013e-06
 Reference value :  8.50017e-06
 Reference value :  8.50023e-06
 Reference value :  8.50036e-06
 Reference value :  8.50063e-06
 Reference value :  8.50108e-06
 Reference value :  8.50175e-06
 Reference value :  8.50253e-06
 Reference value :  8.50323e-06
 Reference value :  8.50398e-06
 Reference value :  8.50475e-06
 Reference value :  8.50560e-06
 Reference value :  8.50655e-06
 Reference value :  8.50786e-06
 Reference value :  8.50877e-06
 Reference value :  8.50982e-06
 Reference value :  8.51108e-06
 Reference value :  8.51245e-06
 Reference value :  8.51518e-06
 Reference value :  8.51830e-06
 Reference value :  8.52453e-06
 Reference value :  8.53632e-06
 Reference value :  8.54576e-06
 Reference value :  8.55511e-06
 Reference value :  8.56165e-06
 Reference value :  8.56587e-06
 Reference value :  8.56920e-06
 Reference value :  8.57281e-06
 Reference value :  8.57700e-06
 Reference value :  8.58137e-06
 Reference value :  8.58837e-06
 Reference value :  8.59634e-06
 Reference value :  8.60816e-06
 Reference value :  8.62457e-06
 Reference value :  8.64743e-06
 Reference value :  8.68146e-06
 Reference value :  8.72973e-06
 Reference value :  8.75010e-06
 Reference value :  8.75011e-06
 Reference value :  8.75013e-06
 Reference value :  8.75017e-06
 Reference value :  8.75020e-06
 Reference value :  8.75020e-06
 Reference value :  8.75020e-06
 Reference value :  8.75020e-06
 Reference value :  8.75021e-06
 Reference value :  8.75022e-06
 Reference value :  8.75023e-06
 Reference value :  8.75027e-06
 Reference value :  8.75033e-06
 Reference value :  8.75047e-06
 Reference value :  8.75064e-06
 Reference value :  8.75091e-06
 Reference value :  8.75145e-06
 Reference value :  8.75211e-06
 Reference value :  8.75281e-06
 Reference value :  8.75354e-06
 Reference value :  8.75447e-06
 Reference value :  8.75552e-06
 Reference value :  8.75660e-06
 Reference value :  8.75765e-06
 Reference value :  8.75876e-06
 Reference value :  8.76010e-06
 Reference value :  8.76132e-06
 Reference value :  8.76285e-06
 Reference value :  8.76590e-06
 Reference value :  8.76988e-06
 Reference value :  8.77734e-06
 Reference value :  8.78890e-06
 Reference value :  8.80809e-06
 Reference value :  8.84080e-06
 Reference value :  8.90302e-06
 Reference value :  9.00000e-06
No. of Data Rows : 1490
ngspice-44 done
