
Note: Compatibility modes selected: hs a


Circuit: ** sch_path: /home/ece/cace/sar-adc-using-sky130-pdk/runs/run_2025-09-12_04-30-57/parameters/dnl/run_0/sar_output_dnl.sch

option SCALE: Scale is set to 1e-06 for instance and model parameters
option SCALE: Scale is set to 1e-06 for instance and model parameters
option SCALE: Scale is set to 1e-06 for instance and model parameters
option SCALE: Scale is set to 1e-06 for instance and model parameters
Doing analysis at TEMP = 27.000000 and TNOM = 27.000000

Using KLU as Direct Linear Solver
Operating point simulation skipped by 'uic',
  now using transient initial conditions.
 Reference value :  1.00000e-12
 Reference value :  1.02772e-12
 Reference value :  1.08316e-12
 Reference value :  1.19404e-12
 Reference value :  1.33842e-12
 Reference value :  1.62719e-12
 Reference value :  2.20473e-12
 Reference value :  3.04021e-12
 Reference value :  3.94703e-12
 Reference value :  5.17026e-12
 Reference value :  6.92347e-12
 Reference value :  1.02712e-11
 Reference value :  1.42636e-11
 Reference value :  2.10052e-11
 Reference value :  2.79181e-11
 Reference value :  3.69526e-11
 Reference value :  4.85171e-11
 Reference value :  6.48166e-11
 Reference value :  8.62345e-11
 Reference value :  1.00000e-10
 Reference value :  1.01152e-10
 Reference value :  1.03457e-10
 Reference value :  1.08066e-10
 Reference value :  1.17284e-10
 Reference value :  1.35720e-10
 Reference value :  1.72593e-10
 Reference value :  2.46338e-10
 Reference value :  3.93828e-10
 Reference value :  5.53153e-10
 Reference value :  8.10604e-10
 Reference value :  1.15240e-09
 Reference value :  1.55592e-09
 Reference value :  2.19327e-09
 Reference value :  2.85344e-09
 Reference value :  3.91496e-09
 Reference value :  4.74912e-09
 Reference value :  5.64175e-09
 Reference value :  6.57020e-09
 Reference value :  7.56709e-09
 Reference value :  8.79900e-09
 Reference value :  9.83999e-09
 Reference value :  1.07219e-08
 Reference value :  1.16466e-08
 Reference value :  1.25717e-08
 Reference value :  1.37334e-08
 Reference value :  1.56506e-08
 Reference value :  1.84001e-08
 Reference value :  2.27935e-08
 Reference value :  2.76458e-08
 Reference value :  3.20137e-08
 Reference value :  3.60745e-08
 Reference value :  3.98535e-08
 Reference value :  4.38425e-08
 Reference value :  5.00600e-08
 Reference value :  5.97186e-08
 Reference value :  7.66568e-08
 Reference value :  1.10533e-07
 Reference value :  1.72222e-07
 Reference value :  2.41394e-07
 Reference value :  2.50100e-07
 Reference value :  2.50110e-07
 Reference value :  2.50130e-07
 Reference value :  2.50170e-07
 Reference value :  2.50200e-07
 Reference value :  2.50201e-07
 Reference value :  2.50202e-07
 Reference value :  2.50204e-07
 Reference value :  2.50208e-07
 Reference value :  2.50216e-07
 Reference value :  2.50233e-07
 Reference value :  2.50266e-07
 Reference value :  2.50332e-07
 Reference value :  2.50438e-07
 Reference value :  2.50611e-07
 Reference value :  2.50808e-07
 Reference value :  2.51136e-07
 Reference value :  2.51583e-07
 Reference value :  2.52133e-07
 Reference value :  2.52731e-07
 Reference value :  2.53379e-07
 Reference value :  2.54229e-07
 Reference value :  2.55158e-07
 Reference value :  2.56089e-07
 Reference value :  2.56989e-07
 Reference value :  2.57972e-07
 Reference value :  2.58946e-07
 Reference value :  2.60499e-07
 Reference value :  2.62419e-07
 Reference value :  2.64909e-07
 Reference value :  2.68767e-07
 Reference value :  2.73509e-07
 Reference value :  2.82991e-07
 Reference value :  3.00568e-07
 Reference value :  3.29460e-07
 Reference value :  3.86673e-07
 Reference value :  5.00000e-07
 Reference value :  5.00010e-07
 Reference value :  5.00030e-07
 Reference value :  5.00070e-07
 Reference value :  5.00100e-07
 Reference value :  5.00104e-07
 Reference value :  5.00113e-07
 Reference value :  5.00130e-07
 Reference value :  5.00165e-07
 Reference value :  5.00234e-07
 Reference value :  5.00372e-07
 Reference value :  5.00573e-07
 Reference value :  5.00954e-07
 Reference value :  5.01538e-07
 Reference value :  5.02096e-07
 Reference value :  5.02766e-07
 Reference value :  5.03533e-07
 Reference value :  5.04331e-07
 Reference value :  5.05155e-07
 Reference value :  5.05969e-07
 Reference value :  5.07062e-07
 Reference value :  5.08130e-07
 Reference value :  5.09940e-07
 Reference value :  5.12181e-07
 Reference value :  5.14397e-07
 Reference value :  5.16701e-07
 Reference value :  5.18870e-07
 Reference value :  5.21551e-07
 Reference value :  5.24224e-07
 Reference value :  5.29329e-07
 Reference value :  5.35742e-07
 Reference value :  5.46810e-07
 Reference value :  5.66366e-07
 Reference value :  5.96608e-07
 Reference value :  6.57093e-07
 Reference value :  7.50100e-07
 Reference value :  7.50110e-07
 Reference value :  7.50130e-07
 Reference value :  7.50170e-07
 Reference value :  7.50200e-07
 Reference value :  7.50201e-07
 Reference value :  7.50202e-07
 Reference value :  7.50205e-07
 Reference value :  7.50211e-07
 Reference value :  7.50223e-07
 Reference value :  7.50247e-07
 Reference value :  7.50295e-07
 Reference value :  7.50390e-07
 Reference value :  7.50581e-07
 Reference value :  7.50959e-07
 Reference value :  7.51572e-07
 Reference value :  7.52191e-07
 Reference value :  7.52840e-07
 Reference value :  7.53541e-07
 Reference value :  7.54448e-07
 Reference value :  7.55180e-07
 Reference value :  7.56013e-07
 Reference value :  7.56742e-07
 Reference value :  7.57547e-07
 Reference value :  7.58563e-07
 Reference value :  7.59653e-07
 Reference value :  7.61835e-07
 Reference value :  7.64160e-07
 Reference value :  7.68223e-07
 Reference value :  7.72598e-07
 Reference value :  7.81348e-07
 Reference value :  7.98847e-07
 Reference value :  8.31746e-07
 Reference value :  8.97544e-07
 Reference value :  1.00000e-06
 Reference value :  1.00001e-06
 Reference value :  1.00003e-06
 Reference value :  1.00007e-06
 Reference value :  1.00010e-06
 Reference value :  1.00010e-06
 Reference value :  1.00011e-06
 Reference value :  1.00013e-06
 Reference value :  1.00016e-06
 Reference value :  1.00023e-06
 Reference value :  1.00037e-06
 Reference value :  1.00057e-06
 Reference value :  1.00095e-06
 Reference value :  1.00154e-06
 Reference value :  1.00209e-06
 Reference value :  1.00276e-06
 Reference value :  1.00353e-06
 Reference value :  1.00440e-06
 Reference value :  1.00519e-06
 Reference value :  1.00606e-06
 Reference value :  1.00684e-06
 Reference value :  1.00759e-06
 Reference value :  1.00846e-06
 Reference value :  1.00938e-06
 Reference value :  1.01056e-06
 Reference value :  1.01241e-06
 Reference value :  1.01476e-06
 Reference value :  1.01829e-06
 Reference value :  1.02070e-06
 Reference value :  1.02282e-06
 Reference value :  1.02485e-06
 Reference value :  1.02663e-06
 Reference value :  1.02849e-06
 Reference value :  1.03079e-06
 Reference value :  1.03330e-06
 Reference value :  1.03634e-06
 Reference value :  1.04062e-06
 Reference value :  1.04637e-06
 Reference value :  1.05499e-06
 Reference value :  1.06787e-06
 Reference value :  1.08748e-06
 Reference value :  1.10726e-06
 Reference value :  1.12158e-06
 Reference value :  1.13284e-06
 Reference value :  1.14095e-06
 Reference value :  1.14734e-06
 Reference value :  1.15413e-06
 Reference value :  1.16063e-06
 Reference value :  1.16804e-06
 Reference value :  1.17836e-06
 Reference value :  1.19500e-06
 Reference value :  1.21718e-06
 Reference value :  1.25010e-06
 Reference value :  1.25011e-06
 Reference value :  1.25013e-06
 Reference value :  1.25017e-06
 Reference value :  1.25020e-06
 Reference value :  1.25020e-06
 Reference value :  1.25020e-06
 Reference value :  1.25021e-06
 Reference value :  1.25021e-06
 Reference value :  1.25022e-06
 Reference value :  1.25025e-06
 Reference value :  1.25029e-06
 Reference value :  1.25039e-06
 Reference value :  1.25057e-06
 Reference value :  1.25090e-06
 Reference value :  1.25154e-06
 Reference value :  1.25213e-06
 Reference value :  1.25276e-06
 Reference value :  1.25347e-06
 Reference value :  1.25449e-06
 Reference value :  1.25523e-06
 Reference value :  1.25604e-06
 Reference value :  1.25702e-06
 Reference value :  1.25804e-06
 Reference value :  1.25914e-06
 Reference value :  1.26134e-06
 Reference value :  1.26357e-06
 Reference value :  1.26720e-06
 Reference value :  1.27141e-06
 Reference value :  1.27983e-06
 Reference value :  1.29669e-06
 Reference value :  1.32463e-06
 Reference value :  1.38051e-06
 Reference value :  1.49227e-06
 Reference value :  1.50000e-06
 Reference value :  1.50001e-06
 Reference value :  1.50003e-06
 Reference value :  1.50007e-06
 Reference value :  1.50010e-06
 Reference value :  1.50010e-06
 Reference value :  1.50011e-06
 Reference value :  1.50013e-06
 Reference value :  1.50016e-06
 Reference value :  1.50023e-06
 Reference value :  1.50037e-06
 Reference value :  1.50057e-06
 Reference value :  1.50093e-06
 Reference value :  1.50144e-06
 Reference value :  1.50196e-06
 Reference value :  1.50257e-06
 Reference value :  1.50328e-06
 Reference value :  1.50403e-06
 Reference value :  1.50495e-06
 Reference value :  1.50586e-06
 Reference value :  1.50686e-06
 Reference value :  1.50811e-06
 Reference value :  1.50936e-06
 Reference value :  1.51067e-06
 Reference value :  1.51200e-06
 Reference value :  1.51365e-06
 Reference value :  1.51502e-06
 Reference value :  1.51662e-06
 Reference value :  1.51816e-06
 Reference value :  1.51995e-06
 Reference value :  1.52353e-06
 Reference value :  1.52952e-06
 Reference value :  1.53971e-06
 Reference value :  1.56009e-06
 Reference value :  1.60084e-06
 Reference value :  1.68235e-06
 Reference value :  1.75010e-06
 Reference value :  1.75011e-06
 Reference value :  1.75013e-06
 Reference value :  1.75017e-06
 Reference value :  1.75020e-06
 Reference value :  1.75020e-06
 Reference value :  1.75020e-06
 Reference value :  1.75021e-06
 Reference value :  1.75021e-06
 Reference value :  1.75022e-06
 Reference value :  1.75025e-06
 Reference value :  1.75029e-06
 Reference value :  1.75039e-06
 Reference value :  1.75057e-06
 Reference value :  1.75090e-06
 Reference value :  1.75156e-06
 Reference value :  1.75215e-06
 Reference value :  1.75278e-06
 Reference value :  1.75348e-06
 Reference value :  1.75439e-06
 Reference value :  1.75514e-06
 Reference value :  1.75599e-06
 Reference value :  1.75671e-06
 Reference value :  1.75752e-06
 Reference value :  1.75855e-06
 Reference value :  1.75965e-06
 Reference value :  1.76078e-06
 Reference value :  1.76247e-06
 Reference value :  1.76454e-06
 Reference value :  1.76717e-06
 Reference value :  1.77073e-06
 Reference value :  1.77526e-06
 Reference value :  1.78433e-06
 Reference value :  1.79842e-06
 Reference value :  1.82659e-06
 Reference value :  1.88295e-06
 Reference value :  1.99566e-06
 Reference value :  2.00000e-06
 Reference value :  2.00001e-06
 Reference value :  2.00003e-06
 Reference value :  2.00007e-06
 Reference value :  2.00010e-06
 Reference value :  2.00010e-06
 Reference value :  2.00011e-06
 Reference value :  2.00013e-06
 Reference value :  2.00017e-06
 Reference value :  2.00023e-06
 Reference value :  2.00037e-06
 Reference value :  2.00057e-06
 Reference value :  2.00093e-06
 Reference value :  2.00145e-06
 Reference value :  2.00198e-06
 Reference value :  2.00262e-06
 Reference value :  2.00338e-06
 Reference value :  2.00415e-06
 Reference value :  2.00498e-06
 Reference value :  2.00570e-06
 Reference value :  2.00649e-06
 Reference value :  2.00720e-06
 Reference value :  2.00804e-06
 Reference value :  2.00883e-06
 Reference value :  2.00991e-06
 Reference value :  2.01108e-06
 Reference value :  2.01313e-06
 Reference value :  2.01599e-06
 Reference value :  2.01790e-06
 Reference value :  2.02002e-06
 Reference value :  2.02197e-06
 Reference value :  2.02343e-06
 Reference value :  2.02481e-06
 Reference value :  2.02603e-06
 Reference value :  2.02740e-06
 Reference value :  2.02903e-06
 Reference value :  2.03098e-06
 Reference value :  2.03375e-06
 Reference value :  2.03717e-06
 Reference value :  2.04400e-06
 Reference value :  2.05450e-06
 Reference value :  2.07247e-06
 Reference value :  2.10414e-06
 Reference value :  2.15627e-06
 Reference value :  2.22027e-06
 Reference value :  2.25010e-06
 Reference value :  2.25011e-06
 Reference value :  2.25013e-06
 Reference value :  2.25017e-06
 Reference value :  2.25020e-06
 Reference value :  2.25020e-06
 Reference value :  2.25020e-06
 Reference value :  2.25021e-06
 Reference value :  2.25021e-06
 Reference value :  2.25022e-06
 Reference value :  2.25025e-06
 Reference value :  2.25029e-06
 Reference value :  2.25039e-06
 Reference value :  2.25058e-06
 Reference value :  2.25091e-06
 Reference value :  2.25157e-06
 Reference value :  2.25217e-06
 Reference value :  2.25281e-06
 Reference value :  2.25351e-06
 Reference value :  2.25441e-06
 Reference value :  2.25513e-06
 Reference value :  2.25595e-06
 Reference value :  2.25680e-06
 Reference value :  2.25768e-06
 Reference value :  2.25885e-06
 Reference value :  2.26068e-06
 Reference value :  2.26317e-06
 Reference value :  2.26616e-06
 Reference value :  2.27050e-06
 Reference value :  2.27529e-06
 Reference value :  2.28056e-06
 Reference value :  2.28588e-06
 Reference value :  2.29072e-06
 Reference value :  2.29464e-06
 Reference value :  2.29880e-06
 Reference value :  2.30485e-06
 Reference value :  2.31261e-06
 Reference value :  2.32634e-06
 Reference value :  2.34150e-06
 Reference value :  2.36237e-06
 Reference value :  2.39273e-06
 Reference value :  2.44395e-06
 Reference value :  2.50000e-06
 Reference value :  2.50001e-06
 Reference value :  2.50003e-06
 Reference value :  2.50007e-06
 Reference value :  2.50010e-06
 Reference value :  2.50010e-06
 Reference value :  2.50011e-06
 Reference value :  2.50013e-06
 Reference value :  2.50016e-06
 Reference value :  2.50023e-06
 Reference value :  2.50037e-06
 Reference value :  2.50057e-06
 Reference value :  2.50093e-06
 Reference value :  2.50143e-06
 Reference value :  2.50196e-06
 Reference value :  2.50260e-06
 Reference value :  2.50337e-06
 Reference value :  2.50412e-06
 Reference value :  2.50494e-06
 Reference value :  2.50593e-06
 Reference value :  2.50683e-06
 Reference value :  2.50808e-06
 Reference value :  2.50927e-06
 Reference value :  2.51057e-06
 Reference value :  2.51188e-06
 Reference value :  2.51349e-06
 Reference value :  2.51486e-06
 Reference value :  2.51644e-06
 Reference value :  2.51798e-06
 Reference value :  2.51974e-06
 Reference value :  2.52327e-06
 Reference value :  2.52987e-06
 Reference value :  2.53977e-06
 Reference value :  2.55957e-06
 Reference value :  2.59915e-06
 Reference value :  2.67833e-06
 Reference value :  2.75010e-06
 Reference value :  2.75011e-06
 Reference value :  2.75013e-06
 Reference value :  2.75017e-06
 Reference value :  2.75020e-06
 Reference value :  2.75020e-06
 Reference value :  2.75020e-06
 Reference value :  2.75021e-06
 Reference value :  2.75021e-06
 Reference value :  2.75022e-06
 Reference value :  2.75025e-06
 Reference value :  2.75029e-06
 Reference value :  2.75039e-06
 Reference value :  2.75057e-06
 Reference value :  2.75090e-06
 Reference value :  2.75156e-06
 Reference value :  2.75215e-06
 Reference value :  2.75279e-06
 Reference value :  2.75349e-06
 Reference value :  2.75440e-06
 Reference value :  2.75514e-06
 Reference value :  2.75598e-06
 Reference value :  2.75670e-06
 Reference value :  2.75750e-06
 Reference value :  2.75854e-06
 Reference value :  2.75964e-06
 Reference value :  2.76185e-06
 Reference value :  2.76416e-06
 Reference value :  2.76824e-06
 Reference value :  2.77260e-06
 Reference value :  2.78134e-06
 Reference value :  2.79880e-06
 Reference value :  2.83373e-06
 Reference value :  2.90358e-06
 Reference value :  3.00000e-06
 Reference value :  3.00001e-06
 Reference value :  3.00003e-06
 Reference value :  3.00007e-06
 Reference value :  3.00010e-06
 Reference value :  3.00010e-06
 Reference value :  3.00011e-06
 Reference value :  3.00013e-06
 Reference value :  3.00016e-06
 Reference value :  3.00023e-06
 Reference value :  3.00037e-06
 Reference value :  3.00057e-06
 Reference value :  3.00093e-06
 Reference value :  3.00143e-06
 Reference value :  3.00196e-06
 Reference value :  3.00260e-06
 Reference value :  3.00337e-06
 Reference value :  3.00412e-06
 Reference value :  3.00497e-06
 Reference value :  3.00575e-06
 Reference value :  3.00655e-06
 Reference value :  3.00763e-06
 Reference value :  3.00863e-06
 Reference value :  3.00964e-06
 Reference value :  3.01107e-06
 Reference value :  3.01274e-06
 Reference value :  3.01546e-06
 Reference value :  3.01836e-06
 Reference value :  3.02065e-06
 Reference value :  3.02252e-06
 Reference value :  3.02430e-06
 Reference value :  3.02589e-06
 Reference value :  3.02761e-06
 Reference value :  3.02964e-06
 Reference value :  3.03162e-06
 Reference value :  3.03453e-06
 Reference value :  3.03782e-06
 Reference value :  3.04271e-06
 Reference value :  3.04629e-06
 Reference value :  3.05057e-06
 Reference value :  3.05397e-06
 Reference value :  3.05846e-06
 Reference value :  3.06153e-06
 Reference value :  3.06501e-06
 Reference value :  3.06861e-06
 Reference value :  3.07263e-06
 Reference value :  3.07872e-06
 Reference value :  3.08643e-06
 Reference value :  3.09452e-06
 Reference value :  3.10318e-06
 Reference value :  3.11158e-06
 Reference value :  3.12840e-06
 Reference value :  3.15499e-06
 Reference value :  3.19535e-06
 Reference value :  3.23623e-06
 Reference value :  3.25010e-06
 Reference value :  3.25011e-06
 Reference value :  3.25013e-06
 Reference value :  3.25017e-06
 Reference value :  3.25020e-06
 Reference value :  3.25020e-06
 Reference value :  3.25020e-06
 Reference value :  3.25021e-06
 Reference value :  3.25021e-06
 Reference value :  3.25022e-06
 Reference value :  3.25025e-06
 Reference value :  3.25029e-06
 Reference value :  3.25039e-06
 Reference value :  3.25058e-06
 Reference value :  3.25091e-06
 Reference value :  3.25157e-06
 Reference value :  3.25218e-06
 Reference value :  3.25282e-06
 Reference value :  3.25352e-06
 Reference value :  3.25442e-06
 Reference value :  3.25511e-06
 Reference value :  3.25591e-06
 Reference value :  3.25676e-06
 Reference value :  3.25764e-06
 Reference value :  3.25879e-06
 Reference value :  3.26072e-06
 Reference value :  3.26321e-06
 Reference value :  3.26620e-06
 Reference value :  3.27053e-06
 Reference value :  3.27697e-06
 Reference value :  3.28985e-06
 Reference value :  3.31561e-06
 Reference value :  3.36713e-06
 Reference value :  3.47016e-06
 Reference value :  3.50000e-06
 Reference value :  3.50001e-06
 Reference value :  3.50003e-06
 Reference value :  3.50007e-06
 Reference value :  3.50010e-06
 Reference value :  3.50010e-06
 Reference value :  3.50011e-06
 Reference value :  3.50013e-06
 Reference value :  3.50016e-06
 Reference value :  3.50023e-06
 Reference value :  3.50037e-06
 Reference value :  3.50057e-06
 Reference value :  3.50093e-06
 Reference value :  3.50144e-06
 Reference value :  3.50196e-06
 Reference value :  3.50256e-06
 Reference value :  3.50328e-06
 Reference value :  3.50403e-06
 Reference value :  3.50495e-06
 Reference value :  3.50584e-06
 Reference value :  3.50685e-06
 Reference value :  3.50798e-06
 Reference value :  3.50926e-06
 Reference value :  3.51048e-06
 Reference value :  3.51175e-06
 Reference value :  3.51348e-06
 Reference value :  3.51492e-06
 Reference value :  3.51648e-06
 Reference value :  3.51804e-06
 Reference value :  3.51986e-06
 Reference value :  3.52342e-06
 Reference value :  3.52854e-06
 Reference value :  3.53879e-06
 Reference value :  3.55930e-06
 Reference value :  3.60031e-06
 Reference value :  3.68233e-06
 Reference value :  3.75010e-06
 Reference value :  3.75011e-06
 Reference value :  3.75013e-06
 Reference value :  3.75017e-06
 Reference value :  3.75020e-06
 Reference value :  3.75020e-06
 Reference value :  3.75020e-06
 Reference value :  3.75021e-06
 Reference value :  3.75021e-06
 Reference value :  3.75022e-06
 Reference value :  3.75025e-06
 Reference value :  3.75029e-06
 Reference value :  3.75039e-06
 Reference value :  3.75057e-06
 Reference value :  3.75090e-06
 Reference value :  3.75156e-06
 Reference value :  3.75215e-06
 Reference value :  3.75279e-06
 Reference value :  3.75349e-06
 Reference value :  3.75440e-06
 Reference value :  3.75514e-06
 Reference value :  3.75598e-06
 Reference value :  3.75670e-06
 Reference value :  3.75751e-06
 Reference value :  3.75854e-06
 Reference value :  3.75964e-06
 Reference value :  3.76076e-06
 Reference value :  3.76246e-06
 Reference value :  3.76449e-06
 Reference value :  3.76716e-06
 Reference value :  3.77068e-06
 Reference value :  3.77523e-06
 Reference value :  3.78433e-06
 Reference value :  3.79807e-06
 Reference value :  3.82556e-06
 Reference value :  3.88054e-06
 Reference value :  3.99049e-06
 Reference value :  4.00000e-06
 Reference value :  4.00001e-06
 Reference value :  4.00003e-06
 Reference value :  4.00007e-06
 Reference value :  4.00010e-06
 Reference value :  4.00010e-06
 Reference value :  4.00011e-06
 Reference value :  4.00013e-06
 Reference value :  4.00017e-06
 Reference value :  4.00023e-06
 Reference value :  4.00037e-06
 Reference value :  4.00057e-06
 Reference value :  4.00093e-06
 Reference value :  4.00145e-06
 Reference value :  4.00198e-06
 Reference value :  4.00262e-06
 Reference value :  4.00338e-06
 Reference value :  4.00415e-06
 Reference value :  4.00498e-06
 Reference value :  4.00570e-06
 Reference value :  4.00648e-06
 Reference value :  4.00720e-06
 Reference value :  4.00804e-06
 Reference value :  4.00886e-06
 Reference value :  4.00995e-06
 Reference value :  4.01118e-06
 Reference value :  4.01322e-06
 Reference value :  4.01459e-06
 Reference value :  4.01612e-06
 Reference value :  4.01767e-06
 Reference value :  4.01940e-06
 Reference value :  4.02101e-06
 Reference value :  4.02234e-06
 Reference value :  4.02379e-06
 Reference value :  4.02512e-06
 Reference value :  4.02662e-06
 Reference value :  4.02812e-06
 Reference value :  4.02970e-06
 Reference value :  4.03236e-06
 Reference value :  4.03530e-06
 Reference value :  4.04118e-06
 Reference value :  4.05210e-06
 Reference value :  4.06899e-06
 Reference value :  4.08757e-06
 Reference value :  4.11021e-06
 Reference value :  4.12946e-06
 Reference value :  4.15094e-06
 Reference value :  4.16476e-06
 Reference value :  4.18174e-06
 Reference value :  4.19805e-06
 Reference value :  4.21369e-06
 Reference value :  4.24413e-06
 Reference value :  4.25010e-06
 Reference value :  4.25011e-06
 Reference value :  4.25013e-06
 Reference value :  4.25017e-06
 Reference value :  4.25020e-06
 Reference value :  4.25020e-06
 Reference value :  4.25020e-06
 Reference value :  4.25021e-06
 Reference value :  4.25021e-06
 Reference value :  4.25022e-06
 Reference value :  4.25025e-06
 Reference value :  4.25029e-06
 Reference value :  4.25039e-06
 Reference value :  4.25057e-06
 Reference value :  4.25090e-06
 Reference value :  4.25155e-06
 Reference value :  4.25215e-06
 Reference value :  4.25279e-06
 Reference value :  4.25349e-06
 Reference value :  4.25440e-06
 Reference value :  4.25513e-06
 Reference value :  4.25596e-06
 Reference value :  4.25682e-06
 Reference value :  4.25771e-06
 Reference value :  4.25888e-06
 Reference value :  4.26078e-06
 Reference value :  4.26322e-06
 Reference value :  4.26630e-06
 Reference value :  4.27061e-06
 Reference value :  4.27716e-06
 Reference value :  4.29026e-06
 Reference value :  4.31647e-06
 Reference value :  4.36887e-06
 Reference value :  4.47369e-06
 Reference value :  4.50000e-06
 Reference value :  4.50001e-06
 Reference value :  4.50003e-06
 Reference value :  4.50007e-06
 Reference value :  4.50010e-06
 Reference value :  4.50010e-06
 Reference value :  4.50011e-06
 Reference value :  4.50013e-06
 Reference value :  4.50016e-06
 Reference value :  4.50023e-06
 Reference value :  4.50037e-06
 Reference value :  4.50057e-06
 Reference value :  4.50093e-06
 Reference value :  4.50143e-06
 Reference value :  4.50196e-06
 Reference value :  4.50256e-06
 Reference value :  4.50328e-06
 Reference value :  4.50402e-06
 Reference value :  4.50495e-06
 Reference value :  4.50584e-06
 Reference value :  4.50684e-06
 Reference value :  4.50798e-06
 Reference value :  4.50916e-06
 Reference value :  4.51038e-06
 Reference value :  4.51164e-06
 Reference value :  4.51325e-06
 Reference value :  4.51468e-06
 Reference value :  4.51620e-06
 Reference value :  4.51785e-06
 Reference value :  4.51971e-06
 Reference value :  4.52314e-06
 Reference value :  4.52817e-06
 Reference value :  4.53819e-06
 Reference value :  4.55735e-06
 Reference value :  4.59434e-06
 Reference value :  4.66832e-06
 Reference value :  4.75010e-06
 Reference value :  4.75011e-06
 Reference value :  4.75013e-06
 Reference value :  4.75017e-06
 Reference value :  4.75020e-06
 Reference value :  4.75020e-06
 Reference value :  4.75020e-06
 Reference value :  4.75021e-06
 Reference value :  4.75021e-06
 Reference value :  4.75022e-06
 Reference value :  4.75025e-06
 Reference value :  4.75029e-06
 Reference value :  4.75039e-06
 Reference value :  4.75057e-06
 Reference value :  4.75090e-06
 Reference value :  4.75155e-06
 Reference value :  4.75215e-06
 Reference value :  4.75278e-06
 Reference value :  4.75348e-06
 Reference value :  4.75440e-06
 Reference value :  4.75514e-06
 Reference value :  4.75598e-06
 Reference value :  4.75671e-06
 Reference value :  4.75751e-06
 Reference value :  4.75855e-06
 Reference value :  4.75965e-06
 Reference value :  4.76079e-06
 Reference value :  4.76247e-06
 Reference value :  4.76456e-06
 Reference value :  4.76717e-06
 Reference value :  4.77077e-06
 Reference value :  4.77529e-06
 Reference value :  4.78434e-06
 Reference value :  4.79860e-06
 Reference value :  4.82713e-06
 Reference value :  4.88420e-06
 Reference value :  4.99833e-06
 Reference value :  5.00000e-06
 Reference value :  5.00001e-06
 Reference value :  5.00003e-06
 Reference value :  5.00007e-06
 Reference value :  5.00010e-06
 Reference value :  5.00010e-06
 Reference value :  5.00011e-06
 Reference value :  5.00013e-06
 Reference value :  5.00017e-06
 Reference value :  5.00023e-06
 Reference value :  5.00037e-06
 Reference value :  5.00057e-06
 Reference value :  5.00093e-06
 Reference value :  5.00145e-06
 Reference value :  5.00197e-06
 Reference value :  5.00261e-06
 Reference value :  5.00338e-06
 Reference value :  5.00414e-06
 Reference value :  5.00497e-06
 Reference value :  5.00569e-06
 Reference value :  5.00648e-06
 Reference value :  5.00720e-06
 Reference value :  5.00804e-06
 Reference value :  5.00891e-06
 Reference value :  5.00998e-06
 Reference value :  5.01133e-06
 Reference value :  5.01335e-06
 Reference value :  5.01466e-06
 Reference value :  5.01619e-06
 Reference value :  5.01783e-06
 Reference value :  5.01946e-06
 Reference value :  5.02118e-06
 Reference value :  5.02252e-06
 Reference value :  5.02397e-06
 Reference value :  5.02525e-06
 Reference value :  5.02672e-06
 Reference value :  5.02820e-06
 Reference value :  5.02977e-06
 Reference value :  5.03234e-06
 Reference value :  5.03539e-06
 Reference value :  5.04148e-06
 Reference value :  5.05258e-06
 Reference value :  5.06404e-06
 Reference value :  5.07642e-06
 Reference value :  5.08943e-06
 Reference value :  5.09788e-06
 Reference value :  5.10524e-06
 Reference value :  5.11308e-06
 Reference value :  5.12189e-06
 Reference value :  5.13140e-06
 Reference value :  5.14231e-06
 Reference value :  5.15022e-06
 Reference value :  5.15905e-06
 Reference value :  5.17121e-06
 Reference value :  5.18212e-06
 Reference value :  5.19462e-06
 Reference value :  5.20483e-06
 Reference value :  5.21786e-06
 Reference value :  5.23898e-06
 Reference value :  5.25010e-06
 Reference value :  5.25011e-06
 Reference value :  5.25013e-06
 Reference value :  5.25017e-06
 Reference value :  5.25020e-06
 Reference value :  5.25020e-06
 Reference value :  5.25020e-06
 Reference value :  5.25021e-06
 Reference value :  5.25021e-06
 Reference value :  5.25022e-06
 Reference value :  5.25025e-06
 Reference value :  5.25029e-06
 Reference value :  5.25039e-06
 Reference value :  5.25058e-06
 Reference value :  5.25091e-06
 Reference value :  5.25157e-06
 Reference value :  5.25218e-06
 Reference value :  5.25282e-06
 Reference value :  5.25353e-06
 Reference value :  5.25443e-06
 Reference value :  5.25513e-06
 Reference value :  5.25594e-06
 Reference value :  5.25680e-06
 Reference value :  5.25768e-06
 Reference value :  5.25884e-06
 Reference value :  5.26078e-06
 Reference value :  5.26321e-06
 Reference value :  5.26627e-06
 Reference value :  5.27057e-06
 Reference value :  5.27721e-06
 Reference value :  5.29050e-06
 Reference value :  5.31708e-06
 Reference value :  5.37024e-06
 Reference value :  5.44043e-06
 Reference value :  5.50000e-06
 Reference value :  5.50001e-06
 Reference value :  5.50003e-06
 Reference value :  5.50007e-06
 Reference value :  5.50010e-06
 Reference value :  5.50010e-06
 Reference value :  5.50011e-06
 Reference value :  5.50013e-06
 Reference value :  5.50016e-06
 Reference value :  5.50023e-06
 Reference value :  5.50037e-06
 Reference value :  5.50057e-06
 Reference value :  5.50093e-06
 Reference value :  5.50143e-06
 Reference value :  5.50196e-06
 Reference value :  5.50256e-06
 Reference value :  5.50328e-06
 Reference value :  5.50403e-06
 Reference value :  5.50495e-06
 Reference value :  5.50586e-06
 Reference value :  5.50685e-06
 Reference value :  5.50811e-06
 Reference value :  5.50926e-06
 Reference value :  5.51067e-06
 Reference value :  5.51201e-06
 Reference value :  5.51360e-06
 Reference value :  5.51529e-06
 Reference value :  5.51706e-06
 Reference value :  5.51916e-06
 Reference value :  5.52269e-06
 Reference value :  5.52785e-06
 Reference value :  5.53726e-06
 Reference value :  5.55453e-06
 Reference value :  5.58568e-06
 Reference value :  5.64659e-06
 Reference value :  5.75010e-06
 Reference value :  5.75011e-06
 Reference value :  5.75013e-06
 Reference value :  5.75017e-06
 Reference value :  5.75020e-06
 Reference value :  5.75020e-06
 Reference value :  5.75020e-06
 Reference value :  5.75021e-06
 Reference value :  5.75021e-06
 Reference value :  5.75022e-06
 Reference value :  5.75025e-06
 Reference value :  5.75029e-06
 Reference value :  5.75039e-06
 Reference value :  5.75058e-06
 Reference value :  5.75091e-06
 Reference value :  5.75158e-06
 Reference value :  5.75218e-06
 Reference value :  5.75283e-06
 Reference value :  5.75353e-06
 Reference value :  5.75443e-06
 Reference value :  5.75515e-06
 Reference value :  5.75596e-06
 Reference value :  5.75668e-06
 Reference value :  5.75747e-06
 Reference value :  5.75849e-06
 Reference value :  5.75957e-06
 Reference value :  5.76066e-06
 Reference value :  5.76241e-06
 Reference value :  5.76424e-06
 Reference value :  5.76708e-06
 Reference value :  5.77036e-06
 Reference value :  5.77499e-06
 Reference value :  5.78419e-06
 Reference value :  5.79617e-06
 Reference value :  5.81989e-06
 Reference value :  5.86523e-06
 Reference value :  5.95334e-06
 Reference value :  6.00000e-06
 Reference value :  6.00001e-06
 Reference value :  6.00003e-06
 Reference value :  6.00007e-06
 Reference value :  6.00010e-06
 Reference value :  6.00010e-06
 Reference value :  6.00011e-06
 Reference value :  6.00013e-06
 Reference value :  6.00017e-06
 Reference value :  6.00023e-06
 Reference value :  6.00037e-06
 Reference value :  6.00057e-06
 Reference value :  6.00093e-06
 Reference value :  6.00145e-06
 Reference value :  6.00198e-06
 Reference value :  6.00262e-06
 Reference value :  6.00338e-06
 Reference value :  6.00415e-06
 Reference value :  6.00498e-06
 Reference value :  6.00571e-06
 Reference value :  6.00649e-06
 Reference value :  6.00722e-06
 Reference value :  6.00805e-06
 Reference value :  6.00896e-06
 Reference value :  6.01001e-06
 Reference value :  6.01161e-06
 Reference value :  6.01350e-06
 Reference value :  6.01487e-06
 Reference value :  6.01640e-06
 Reference value :  6.01801e-06
 Reference value :  6.01975e-06
 Reference value :  6.02154e-06
 Reference value :  6.02276e-06
 Reference value :  6.02416e-06
 Reference value :  6.02537e-06
 Reference value :  6.02678e-06
 Reference value :  6.02820e-06
 Reference value :  6.02970e-06
 Reference value :  6.03223e-06
 Reference value :  6.03509e-06
 Reference value :  6.04081e-06
 Reference value :  6.04682e-06
 Reference value :  6.05451e-06
 Reference value :  6.06171e-06
 Reference value :  6.07093e-06
 Reference value :  6.07812e-06
 Reference value :  6.08565e-06
 Reference value :  6.09420e-06
 Reference value :  6.10307e-06
 Reference value :  6.11996e-06
 Reference value :  6.14943e-06
 Reference value :  6.19055e-06
 Reference value :  6.25010e-06
 Reference value :  6.25011e-06
 Reference value :  6.25013e-06
 Reference value :  6.25017e-06
 Reference value :  6.25020e-06
 Reference value :  6.25020e-06
 Reference value :  6.25020e-06
 Reference value :  6.25021e-06
 Reference value :  6.25021e-06
 Reference value :  6.25022e-06
 Reference value :  6.25025e-06
 Reference value :  6.25029e-06
 Reference value :  6.25039e-06
 Reference value :  6.25057e-06
 Reference value :  6.25090e-06
 Reference value :  6.25156e-06
 Reference value :  6.25216e-06
 Reference value :  6.25279e-06
 Reference value :  6.25350e-06
 Reference value :  6.25441e-06
 Reference value :  6.25516e-06
 Reference value :  6.25600e-06
 Reference value :  6.25685e-06
 Reference value :  6.25775e-06
 Reference value :  6.25895e-06
 Reference value :  6.26081e-06
 Reference value :  6.26323e-06
 Reference value :  6.26635e-06
 Reference value :  6.27065e-06
 Reference value :  6.27748e-06
 Reference value :  6.29115e-06
 Reference value :  6.31742e-06
 Reference value :  6.36997e-06
 Reference value :  6.47507e-06
 Reference value :  6.50000e-06
 Reference value :  6.50001e-06
 Reference value :  6.50003e-06
 Reference value :  6.50007e-06
 Reference value :  6.50010e-06
 Reference value :  6.50010e-06
 Reference value :  6.50011e-06
 Reference value :  6.50013e-06
 Reference value :  6.50016e-06
 Reference value :  6.50023e-06
 Reference value :  6.50037e-06
 Reference value :  6.50057e-06
 Reference value :  6.50093e-06
 Reference value :  6.50143e-06
 Reference value :  6.50196e-06
 Reference value :  6.50260e-06
 Reference value :  6.50337e-06
 Reference value :  6.50412e-06
 Reference value :  6.50493e-06
 Reference value :  6.50582e-06
 Reference value :  6.50674e-06
 Reference value :  6.50784e-06
 Reference value :  6.50921e-06
 Reference value :  6.51041e-06
 Reference value :  6.51168e-06
 Reference value :  6.51353e-06
 Reference value :  6.51522e-06
 Reference value :  6.51687e-06
 Reference value :  6.51888e-06
 Reference value :  6.52108e-06
 Reference value :  6.52469e-06
 Reference value :  6.52999e-06
 Reference value :  6.53916e-06
 Reference value :  6.55564e-06
 Reference value :  6.58473e-06
 Reference value :  6.63950e-06
 Reference value :  6.73981e-06
 Reference value :  6.75010e-06
 Reference value :  6.75011e-06
 Reference value :  6.75013e-06
 Reference value :  6.75017e-06
 Reference value :  6.75020e-06
 Reference value :  6.75020e-06
 Reference value :  6.75020e-06
 Reference value :  6.75021e-06
 Reference value :  6.75021e-06
 Reference value :  6.75022e-06
 Reference value :  6.75025e-06
 Reference value :  6.75029e-06
 Reference value :  6.75039e-06
 Reference value :  6.75058e-06
 Reference value :  6.75091e-06
 Reference value :  6.75158e-06
 Reference value :  6.75219e-06
 Reference value :  6.75283e-06
 Reference value :  6.75353e-06
 Reference value :  6.75443e-06
 Reference value :  6.75514e-06
 Reference value :  6.75596e-06
 Reference value :  6.75667e-06
 Reference value :  6.75746e-06
 Reference value :  6.75847e-06
 Reference value :  6.75956e-06
 Reference value :  6.76173e-06
 Reference value :  6.76402e-06
 Reference value :  6.76804e-06
 Reference value :  6.77233e-06
 Reference value :  6.78093e-06
 Reference value :  6.79811e-06
 Reference value :  6.83248e-06
 Reference value :  6.90123e-06
 Reference value :  7.00000e-06
 Reference value :  7.00001e-06
 Reference value :  7.00003e-06
 Reference value :  7.00007e-06
 Reference value :  7.00010e-06
 Reference value :  7.00010e-06
 Reference value :  7.00011e-06
 Reference value :  7.00013e-06
 Reference value :  7.00016e-06
 Reference value :  7.00023e-06
 Reference value :  7.00037e-06
 Reference value :  7.00057e-06
 Reference value :  7.00093e-06
 Reference value :  7.00143e-06
 Reference value :  7.00196e-06
 Reference value :  7.00260e-06
 Reference value :  7.00336e-06
 Reference value :  7.00412e-06
 Reference value :  7.00497e-06
 Reference value :  7.00572e-06
 Reference value :  7.00653e-06
 Reference value :  7.00731e-06
 Reference value :  7.00826e-06
 Reference value :  7.00915e-06
 Reference value :  7.01037e-06
 Reference value :  7.01200e-06
 Reference value :  7.01424e-06
 Reference value :  7.01717e-06
 Reference value :  7.01947e-06
 Reference value :  7.02191e-06
 Reference value :  7.02367e-06
 Reference value :  7.02530e-06
 Reference value :  7.02680e-06
 Reference value :  7.02838e-06
 Reference value :  7.03020e-06
 Reference value :  7.03273e-06
 Reference value :  7.03538e-06
 Reference value :  7.04009e-06
 Reference value :  7.04474e-06
 Reference value :  7.04948e-06
 Reference value :  7.05423e-06
 Reference value :  7.05893e-06
 Reference value :  7.06402e-06
 Reference value :  7.07147e-06
 Reference value :  7.07842e-06
 Reference value :  7.08513e-06
 Reference value :  7.09354e-06
 Reference value :  7.10725e-06
 Reference value :  7.13038e-06
 Reference value :  7.17665e-06
 Reference value :  7.23034e-06
 Reference value :  7.25010e-06
 Reference value :  7.25011e-06
 Reference value :  7.25013e-06
 Reference value :  7.25017e-06
 Reference value :  7.25020e-06
 Reference value :  7.25020e-06
 Reference value :  7.25020e-06
 Reference value :  7.25021e-06
 Reference value :  7.25021e-06
 Reference value :  7.25022e-06
 Reference value :  7.25025e-06
 Reference value :  7.25029e-06
 Reference value :  7.25039e-06
 Reference value :  7.25058e-06
 Reference value :  7.25092e-06
 Reference value :  7.25158e-06
 Reference value :  7.25219e-06
 Reference value :  7.25284e-06
 Reference value :  7.25354e-06
 Reference value :  7.25443e-06
 Reference value :  7.25510e-06
 Reference value :  7.25586e-06
 Reference value :  7.25683e-06
 Reference value :  7.25772e-06
 Reference value :  7.25888e-06
 Reference value :  7.26107e-06
 Reference value :  7.26337e-06
 Reference value :  7.26664e-06
 Reference value :  7.27088e-06
 Reference value :  7.27848e-06
 Reference value :  7.29367e-06
 Reference value :  7.32407e-06
 Reference value :  7.38486e-06
 Reference value :  7.50000e-06
 Reference value :  7.50001e-06
 Reference value :  7.50003e-06
 Reference value :  7.50007e-06
 Reference value :  7.50010e-06
 Reference value :  7.50010e-06
 Reference value :  7.50011e-06
 Reference value :  7.50013e-06
 Reference value :  7.50017e-06
 Reference value :  7.50023e-06
 Reference value :  7.50037e-06
 Reference value :  7.50057e-06
 Reference value :  7.50093e-06
 Reference value :  7.50151e-06
 Reference value :  7.50205e-06
 Reference value :  7.50268e-06
 Reference value :  7.50339e-06
 Reference value :  7.50421e-06
 Reference value :  7.50502e-06
 Reference value :  7.50597e-06
 Reference value :  7.50696e-06
 Reference value :  7.50812e-06
 Reference value :  7.50932e-06
 Reference value :  7.51056e-06
 Reference value :  7.51183e-06
 Reference value :  7.51348e-06
 Reference value :  7.51491e-06
 Reference value :  7.51644e-06
 Reference value :  7.51808e-06
 Reference value :  7.51994e-06
 Reference value :  7.52334e-06
 Reference value :  7.52830e-06
 Reference value :  7.53822e-06
 Reference value :  7.55712e-06
 Reference value :  7.59361e-06
 Reference value :  7.66659e-06
 Reference value :  7.75010e-06
 Reference value :  7.75011e-06
 Reference value :  7.75013e-06
 Reference value :  7.75017e-06
 Reference value :  7.75020e-06
 Reference value :  7.75020e-06
 Reference value :  7.75020e-06
 Reference value :  7.75021e-06
 Reference value :  7.75021e-06
 Reference value :  7.75022e-06
 Reference value :  7.75025e-06
 Reference value :  7.75029e-06
 Reference value :  7.75039e-06
 Reference value :  7.75057e-06
 Reference value :  7.75091e-06
 Reference value :  7.75157e-06
 Reference value :  7.75217e-06
 Reference value :  7.75281e-06
 Reference value :  7.75352e-06
 Reference value :  7.75442e-06
 Reference value :  7.75512e-06
 Reference value :  7.75592e-06
 Reference value :  7.75663e-06
 Reference value :  7.75741e-06
 Reference value :  7.75844e-06
 Reference value :  7.75954e-06
 Reference value :  7.76058e-06
 Reference value :  7.76239e-06
 Reference value :  7.76402e-06
 Reference value :  7.76705e-06
 Reference value :  7.77018e-06
 Reference value :  7.77493e-06
 Reference value :  7.78286e-06
 Reference value :  7.79331e-06
 Reference value :  7.81094e-06
 Reference value :  7.84363e-06
 Reference value :  7.89602e-06
 Reference value :  7.99128e-06
 Reference value :  8.00000e-06
 Reference value :  8.00001e-06
 Reference value :  8.00003e-06
 Reference value :  8.00007e-06
 Reference value :  8.00010e-06
 Reference value :  8.00010e-06
 Reference value :  8.00011e-06
 Reference value :  8.00013e-06
 Reference value :  8.00016e-06
 Reference value :  8.00023e-06
 Reference value :  8.00037e-06
 Reference value :  8.00056e-06
 Reference value :  8.00092e-06
 Reference value :  8.00145e-06
 Reference value :  8.00199e-06
 Reference value :  8.00265e-06
 Reference value :  8.00340e-06
 Reference value :  8.00418e-06
 Reference value :  8.00503e-06
 Reference value :  8.00577e-06
 Reference value :  8.00653e-06
 Reference value :  8.00725e-06
 Reference value :  8.00806e-06
 Reference value :  8.00898e-06
 Reference value :  8.01003e-06
 Reference value :  8.01150e-06
 Reference value :  8.01348e-06
 Reference value :  8.01497e-06
 Reference value :  8.01659e-06
 Reference value :  8.01829e-06
 Reference value :  8.02007e-06
 Reference value :  8.02190e-06
 Reference value :  8.02408e-06
 Reference value :  8.02645e-06
 Reference value :  8.02986e-06
 Reference value :  8.03350e-06
 Reference value :  8.04032e-06
 Reference value :  8.05058e-06
 Reference value :  8.06509e-06
 Reference value :  8.07974e-06
 Reference value :  8.10059e-06
 Reference value :  8.12410e-06
 Reference value :  8.15093e-06
 Reference value :  8.17300e-06
 Reference value :  8.19513e-06
 Reference value :  8.21895e-06
 Reference value :  8.24413e-06
 Reference value :  8.25010e-06
 Reference value :  8.25011e-06
 Reference value :  8.25013e-06
 Reference value :  8.25017e-06
 Reference value :  8.25020e-06
 Reference value :  8.25020e-06
 Reference value :  8.25020e-06
 Reference value :  8.25021e-06
 Reference value :  8.25021e-06
 Reference value :  8.25022e-06
 Reference value :  8.25025e-06
 Reference value :  8.25029e-06
 Reference value :  8.25039e-06
 Reference value :  8.25058e-06
 Reference value :  8.25096e-06
 Reference value :  8.25160e-06
 Reference value :  8.25224e-06
 Reference value :  8.25290e-06
 Reference value :  8.25360e-06
 Reference value :  8.25448e-06
 Reference value :  8.25545e-06
 Reference value :  8.25667e-06
 Reference value :  8.25801e-06
 Reference value :  8.25946e-06
 Reference value :  8.26194e-06
 Reference value :  8.26451e-06
 Reference value :  8.26850e-06
 Reference value :  8.27329e-06
 Reference value :  8.28286e-06
 Reference value :  8.30201e-06
 Reference value :  8.34031e-06
 Reference value :  8.41690e-06
 Reference value :  8.50000e-06
 Reference value :  8.50000e-06
 Reference value :  8.50000e-06
 Reference value :  8.50000e-06
 Reference value :  8.50000e-06
 Reference value :  8.50000e-06
 Reference value :  8.50000e-06
 Reference value :  8.50000e-06
 Reference value :  8.50000e-06
 Reference value :  8.50001e-06
 Reference value :  8.50001e-06
 Reference value :  8.50002e-06
 Reference value :  8.50004e-06
 Reference value :  8.50008e-06
 Reference value :  8.50010e-06
 Reference value :  8.50010e-06
 Reference value :  8.50011e-06
 Reference value :  8.50012e-06
 Reference value :  8.50014e-06
 Reference value :  8.50018e-06
 Reference value :  8.50026e-06
 Reference value :  8.50042e-06
 Reference value :  8.50074e-06
 Reference value :  8.50127e-06
 Reference value :  8.50184e-06
 Reference value :  8.50268e-06
 Reference value :  8.50347e-06
 Reference value :  8.50424e-06
 Reference value :  8.50514e-06
 Reference value :  8.50596e-06
 Reference value :  8.50716e-06
 Reference value :  8.50871e-06
 Reference value :  8.51039e-06
 Reference value :  8.51199e-06
 Reference value :  8.51370e-06
 Reference value :  8.51558e-06
 Reference value :  8.51860e-06
 Reference value :  8.52180e-06
 Reference value :  8.52820e-06
 Reference value :  8.53497e-06
 Reference value :  8.53965e-06
 Reference value :  8.54389e-06
 Reference value :  8.54732e-06
 Reference value :  8.55043e-06
 Reference value :  8.55294e-06
 Reference value :  8.55560e-06
 Reference value :  8.55822e-06
 Reference value :  8.56328e-06
 Reference value :  8.56798e-06
 Reference value :  8.57283e-06
 Reference value :  8.57911e-06
 Reference value :  8.58654e-06
 Reference value :  8.59831e-06
 Reference value :  8.61601e-06
 Reference value :  8.64514e-06
 Reference value :  8.69399e-06
 Reference value :  8.75010e-06
 Reference value :  8.75011e-06
 Reference value :  8.75013e-06
 Reference value :  8.75017e-06
 Reference value :  8.75020e-06
 Reference value :  8.75020e-06
 Reference value :  8.75020e-06
 Reference value :  8.75021e-06
 Reference value :  8.75021e-06
 Reference value :  8.75022e-06
 Reference value :  8.75025e-06
 Reference value :  8.75029e-06
 Reference value :  8.75039e-06
 Reference value :  8.75057e-06
 Reference value :  8.75095e-06
 Reference value :  8.75162e-06
 Reference value :  8.75223e-06
 Reference value :  8.75289e-06
 Reference value :  8.75359e-06
 Reference value :  8.75448e-06
 Reference value :  8.75519e-06
 Reference value :  8.75599e-06
 Reference value :  8.75682e-06
 Reference value :  8.75768e-06
 Reference value :  8.75881e-06
 Reference value :  8.76061e-06
 Reference value :  8.76331e-06
 Reference value :  8.76619e-06
 Reference value :  8.77067e-06
 Reference value :  8.77686e-06
 Reference value :  8.78925e-06
 Reference value :  8.81402e-06
 Reference value :  8.86356e-06
 Reference value :  8.94735e-06
 Reference value :  9.00000e-06
 Reference value :  9.00001e-06
 Reference value :  9.00003e-06
 Reference value :  9.00007e-06
 Reference value :  9.00010e-06
 Reference value :  9.00010e-06
 Reference value :  9.00011e-06
 Reference value :  9.00013e-06
 Reference value :  9.00016e-06
 Reference value :  9.00023e-06
 Reference value :  9.00037e-06
 Reference value :  9.00057e-06
 Reference value :  9.00095e-06
 Reference value :  9.00154e-06
 Reference value :  9.00209e-06
 Reference value :  9.00276e-06
 Reference value :  9.00352e-06
 Reference value :  9.00426e-06
 Reference value :  9.00503e-06
 Reference value :  9.00584e-06
 Reference value :  9.00675e-06
 Reference value :  9.00781e-06
 Reference value :  9.00943e-06
 Reference value :  9.01164e-06
 Reference value :  9.01414e-06
 Reference value :  9.01612e-06
 Reference value :  9.01826e-06
 Reference value :  9.02030e-06
 Reference value :  9.02301e-06
 Reference value :  9.02658e-06
 Reference value :  9.03176e-06
 Reference value :  9.03958e-06
 Reference value :  9.05238e-06
 Reference value :  9.07232e-06
 Reference value :  9.10521e-06
 Reference value :  9.15859e-06
 Reference value :  9.24591e-06
 Reference value :  9.25010e-06
 Reference value :  9.25011e-06
 Reference value :  9.25013e-06
 Reference value :  9.25017e-06
 Reference value :  9.25020e-06
 Reference value :  9.25020e-06
 Reference value :  9.25020e-06
 Reference value :  9.25021e-06
 Reference value :  9.25021e-06
 Reference value :  9.25022e-06
 Reference value :  9.25025e-06
 Reference value :  9.25029e-06
 Reference value :  9.25039e-06
 Reference value :  9.25058e-06
 Reference value :  9.25096e-06
 Reference value :  9.25157e-06
 Reference value :  9.25219e-06
 Reference value :  9.25284e-06
 Reference value :  9.25354e-06
 Reference value :  9.25445e-06
 Reference value :  9.25517e-06
 Reference value :  9.25600e-06
 Reference value :  9.25673e-06
 Reference value :  9.25753e-06
 Reference value :  9.25860e-06
 Reference value :  9.25973e-06
 Reference value :  9.26198e-06
 Reference value :  9.26435e-06
 Reference value :  9.26846e-06
 Reference value :  9.27293e-06
 Reference value :  9.28187e-06
 Reference value :  9.29974e-06
 Reference value :  9.33549e-06
 Reference value :  9.40699e-06
 Reference value :  9.50000e-06
 Reference value :  9.50001e-06
 Reference value :  9.50003e-06
 Reference value :  9.50007e-06
 Reference value :  9.50010e-06
 Reference value :  9.50010e-06
 Reference value :  9.50011e-06
 Reference value :  9.50013e-06
 Reference value :  9.50016e-06
 Reference value :  9.50023e-06
 Reference value :  9.50037e-06
 Reference value :  9.50057e-06
 Reference value :  9.50095e-06
 Reference value :  9.50154e-06
 Reference value :  9.50209e-06
 Reference value :  9.50276e-06
 Reference value :  9.50352e-06
 Reference value :  9.50439e-06
 Reference value :  9.50519e-06
 Reference value :  9.50605e-06
 Reference value :  9.50684e-06
 Reference value :  9.50758e-06
 Reference value :  9.50846e-06
 Reference value :  9.50937e-06
 Reference value :  9.51056e-06
 Reference value :  9.51240e-06
 Reference value :  9.51474e-06
 Reference value :  9.51829e-06
 Reference value :  9.52071e-06
 Reference value :  9.52286e-06
 Reference value :  9.52490e-06
 Reference value :  9.52670e-06
 Reference value :  9.52857e-06
 Reference value :  9.53089e-06
 Reference value :  9.53344e-06
 Reference value :  9.53651e-06
 Reference value :  9.54089e-06
 Reference value :  9.54672e-06
 Reference value :  9.55548e-06
 Reference value :  9.56854e-06
 Reference value :  9.58834e-06
 Reference value :  9.60833e-06
 Reference value :  9.62276e-06
 Reference value :  9.63408e-06
 Reference value :  9.64210e-06
 Reference value :  9.64855e-06
 Reference value :  9.65538e-06
 Reference value :  9.66192e-06
 Reference value :  9.66925e-06
 Reference value :  9.68032e-06
 Reference value :  9.69689e-06
 Reference value :  9.71978e-06
 Reference value :  9.75010e-06
 Reference value :  9.75011e-06
 Reference value :  9.75013e-06
 Reference value :  9.75017e-06
 Reference value :  9.75020e-06
 Reference value :  9.75020e-06
 Reference value :  9.75020e-06
 Reference value :  9.75021e-06
 Reference value :  9.75021e-06
 Reference value :  9.75022e-06
 Reference value :  9.75025e-06
 Reference value :  9.75029e-06
 Reference value :  9.75039e-06
 Reference value :  9.75057e-06
 Reference value :  9.75090e-06
 Reference value :  9.75154e-06
 Reference value :  9.75213e-06
 Reference value :  9.75276e-06
 Reference value :  9.75347e-06
 Reference value :  9.75438e-06
 Reference value :  9.75511e-06
 Reference value :  9.75593e-06
 Reference value :  9.75679e-06
 Reference value :  9.75769e-06
 Reference value :  9.75885e-06
 Reference value :  9.76083e-06
 Reference value :  9.76325e-06
 Reference value :  9.76633e-06
 Reference value :  9.77063e-06
 Reference value :  9.77742e-06
 Reference value :  9.79100e-06
 Reference value :  9.81816e-06
 Reference value :  9.87248e-06
 Reference value :  9.98112e-06
 Reference value :  1.00000e-05
 Reference value :  1.00000e-05
 Reference value :  1.00000e-05
 Reference value :  1.00001e-05
 Reference value :  1.00001e-05
 Reference value :  1.00001e-05
 Reference value :  1.00001e-05
 Reference value :  1.00001e-05
 Reference value :  1.00002e-05
 Reference value :  1.00002e-05
 Reference value :  1.00004e-05
 Reference value :  1.00006e-05
 Reference value :  1.00009e-05
 Reference value :  1.00014e-05
 Reference value :  1.00020e-05
 Reference value :  1.00026e-05
 Reference value :  1.00033e-05
 Reference value :  1.00040e-05
 Reference value :  1.00050e-05
 Reference value :  1.00059e-05
 Reference value :  1.00069e-05
 Reference value :  1.00081e-05
 Reference value :  1.00094e-05
 Reference value :  1.00107e-05
 Reference value :  1.00120e-05
 Reference value :  1.00137e-05
 Reference value :  1.00150e-05
 Reference value :  1.00166e-05
 Reference value :  1.00182e-05
 Reference value :  1.00200e-05
 Reference value :  1.00235e-05
 Reference value :  1.00294e-05
 Reference value :  1.00396e-05
 Reference value :  1.00601e-05
 Reference value :  1.01011e-05
 Reference value :  1.01830e-05
 Reference value :  1.02501e-05
 Reference value :  1.02501e-05
 Reference value :  1.02501e-05
 Reference value :  1.02502e-05
 Reference value :  1.02502e-05
 Reference value :  1.02502e-05
 Reference value :  1.02502e-05
 Reference value :  1.02502e-05
 Reference value :  1.02502e-05
 Reference value :  1.02502e-05
 Reference value :  1.02502e-05
 Reference value :  1.02503e-05
 Reference value :  1.02504e-05
 Reference value :  1.02506e-05
 Reference value :  1.02509e-05
 Reference value :  1.02516e-05
 Reference value :  1.02521e-05
 Reference value :  1.02528e-05
 Reference value :  1.02535e-05
 Reference value :  1.02544e-05
 Reference value :  1.02551e-05
 Reference value :  1.02560e-05
 Reference value :  1.02567e-05
 Reference value :  1.02575e-05
 Reference value :  1.02586e-05
 Reference value :  1.02597e-05
 Reference value :  1.02608e-05
 Reference value :  1.02625e-05
 Reference value :  1.02645e-05
 Reference value :  1.02672e-05
 Reference value :  1.02707e-05
 Reference value :  1.02753e-05
 Reference value :  1.02843e-05
 Reference value :  1.02983e-05
 Reference value :  1.03263e-05
 Reference value :  1.03822e-05
 Reference value :  1.04940e-05
 Reference value :  1.05000e-05
 Reference value :  1.05000e-05
 Reference value :  1.05000e-05
 Reference value :  1.05001e-05
 Reference value :  1.05001e-05
 Reference value :  1.05001e-05
 Reference value :  1.05001e-05
 Reference value :  1.05001e-05
 Reference value :  1.05002e-05
 Reference value :  1.05002e-05
 Reference value :  1.05004e-05
 Reference value :  1.05006e-05
 Reference value :  1.05009e-05
 Reference value :  1.05014e-05
 Reference value :  1.05020e-05
 Reference value :  1.05026e-05
 Reference value :  1.05034e-05
 Reference value :  1.05041e-05
 Reference value :  1.05050e-05
 Reference value :  1.05057e-05
 Reference value :  1.05065e-05
 Reference value :  1.05072e-05
 Reference value :  1.05080e-05
 Reference value :  1.05088e-05
 Reference value :  1.05099e-05
 Reference value :  1.05111e-05
 Reference value :  1.05131e-05
 Reference value :  1.05160e-05
 Reference value :  1.05179e-05
 Reference value :  1.05200e-05
 Reference value :  1.05220e-05
 Reference value :  1.05234e-05
 Reference value :  1.05248e-05
 Reference value :  1.05260e-05
 Reference value :  1.05273e-05
 Reference value :  1.05290e-05
 Reference value :  1.05309e-05
 Reference value :  1.05336e-05
 Reference value :  1.05369e-05
 Reference value :  1.05435e-05
 Reference value :  1.05544e-05
 Reference value :  1.05726e-05
 Reference value :  1.06063e-05
 Reference value :  1.06578e-05
 Reference value :  1.07152e-05
 Reference value :  1.07501e-05
 Reference value :  1.07501e-05
 Reference value :  1.07501e-05
 Reference value :  1.07502e-05
 Reference value :  1.07502e-05
 Reference value :  1.07502e-05
 Reference value :  1.07502e-05
 Reference value :  1.07502e-05
 Reference value :  1.07502e-05
 Reference value :  1.07502e-05
 Reference value :  1.07502e-05
 Reference value :  1.07503e-05
 Reference value :  1.07504e-05
 Reference value :  1.07506e-05
 Reference value :  1.07509e-05
 Reference value :  1.07516e-05
 Reference value :  1.07522e-05
 Reference value :  1.07528e-05
 Reference value :  1.07535e-05
 Reference value :  1.07544e-05
 Reference value :  1.07551e-05
 Reference value :  1.07560e-05
 Reference value :  1.07568e-05
 Reference value :  1.07577e-05
 Reference value :  1.07589e-05
 Reference value :  1.07607e-05
 Reference value :  1.07632e-05
 Reference value :  1.07662e-05
 Reference value :  1.07705e-05
 Reference value :  1.07769e-05
 Reference value :  1.07832e-05
 Reference value :  1.07877e-05
 Reference value :  1.07917e-05
 Reference value :  1.07961e-05
 Reference value :  1.08016e-05
 Reference value :  1.08094e-05
 Reference value :  1.08210e-05
 Reference value :  1.08363e-05
 Reference value :  1.08552e-05
 Reference value :  1.08868e-05
 Reference value :  1.09339e-05
 Reference value :  1.10000e-05
 Reference value :  1.10000e-05
 Reference value :  1.10000e-05
 Reference value :  1.10001e-05
 Reference value :  1.10001e-05
 Reference value :  1.10001e-05
 Reference value :  1.10001e-05
 Reference value :  1.10001e-05
 Reference value :  1.10002e-05
 Reference value :  1.10002e-05
 Reference value :  1.10004e-05
 Reference value :  1.10006e-05
 Reference value :  1.10009e-05
 Reference value :  1.10014e-05
 Reference value :  1.10020e-05
 Reference value :  1.10026e-05
 Reference value :  1.10034e-05
 Reference value :  1.10041e-05
 Reference value :  1.10050e-05
 Reference value :  1.10059e-05
 Reference value :  1.10068e-05
 Reference value :  1.10081e-05
 Reference value :  1.10093e-05
 Reference value :  1.10105e-05
 Reference value :  1.10118e-05
 Reference value :  1.10134e-05
 Reference value :  1.10148e-05
 Reference value :  1.10164e-05
 Reference value :  1.10180e-05
 Reference value :  1.10197e-05
 Reference value :  1.10233e-05
 Reference value :  1.10303e-05
 Reference value :  1.10400e-05
 Reference value :  1.10594e-05
 Reference value :  1.10981e-05
 Reference value :  1.11757e-05
 Reference value :  1.12501e-05
 Reference value :  1.12501e-05
 Reference value :  1.12501e-05
 Reference value :  1.12502e-05
 Reference value :  1.12502e-05
 Reference value :  1.12502e-05
 Reference value :  1.12502e-05
 Reference value :  1.12502e-05
 Reference value :  1.12502e-05
 Reference value :  1.12502e-05
 Reference value :  1.12502e-05
 Reference value :  1.12503e-05
 Reference value :  1.12504e-05
 Reference value :  1.12506e-05
 Reference value :  1.12509e-05
 Reference value :  1.12516e-05
 Reference value :  1.12522e-05
 Reference value :  1.12528e-05
 Reference value :  1.12535e-05
 Reference value :  1.12544e-05
 Reference value :  1.12551e-05
 Reference value :  1.12560e-05
 Reference value :  1.12567e-05
 Reference value :  1.12575e-05
 Reference value :  1.12585e-05
 Reference value :  1.12596e-05
 Reference value :  1.12618e-05
 Reference value :  1.12642e-05
 Reference value :  1.12682e-05
 Reference value :  1.12726e-05
 Reference value :  1.12813e-05
 Reference value :  1.12988e-05
 Reference value :  1.13337e-05
 Reference value :  1.14036e-05
 Reference value :  1.15000e-05
 Reference value :  1.15000e-05
 Reference value :  1.15000e-05
 Reference value :  1.15001e-05
 Reference value :  1.15001e-05
 Reference value :  1.15001e-05
 Reference value :  1.15001e-05
 Reference value :  1.15001e-05
 Reference value :  1.15002e-05
 Reference value :  1.15002e-05
 Reference value :  1.15004e-05
 Reference value :  1.15006e-05
 Reference value :  1.15009e-05
 Reference value :  1.15014e-05
 Reference value :  1.15020e-05
 Reference value :  1.15026e-05
 Reference value :  1.15034e-05
 Reference value :  1.15041e-05
 Reference value :  1.15050e-05
 Reference value :  1.15057e-05
 Reference value :  1.15066e-05
 Reference value :  1.15076e-05
 Reference value :  1.15086e-05
 Reference value :  1.15096e-05
 Reference value :  1.15111e-05
 Reference value :  1.15127e-05
 Reference value :  1.15155e-05
 Reference value :  1.15184e-05
 Reference value :  1.15206e-05
 Reference value :  1.15225e-05
 Reference value :  1.15243e-05
 Reference value :  1.15259e-05
 Reference value :  1.15276e-05
 Reference value :  1.15296e-05
 Reference value :  1.15316e-05
 Reference value :  1.15345e-05
 Reference value :  1.15378e-05
 Reference value :  1.15431e-05
 Reference value :  1.15466e-05
 Reference value :  1.15510e-05
 Reference value :  1.15544e-05
 Reference value :  1.15590e-05
 Reference value :  1.15620e-05
 Reference value :  1.15656e-05
 Reference value :  1.15693e-05
 Reference value :  1.15734e-05
 Reference value :  1.15797e-05
 Reference value :  1.15876e-05
 Reference value :  1.15955e-05
 Reference value :  1.16040e-05
 Reference value :  1.16127e-05
 Reference value :  1.16301e-05
 Reference value :  1.16537e-05
 Reference value :  1.16954e-05
 Reference value :  1.17352e-05
 Reference value :  1.17501e-05
 Reference value :  1.17501e-05
 Reference value :  1.17501e-05
 Reference value :  1.17502e-05
 Reference value :  1.17502e-05
 Reference value :  1.17502e-05
 Reference value :  1.17502e-05
 Reference value :  1.17502e-05
 Reference value :  1.17502e-05
 Reference value :  1.17502e-05
 Reference value :  1.17502e-05
 Reference value :  1.17503e-05
 Reference value :  1.17504e-05
 Reference value :  1.17506e-05
 Reference value :  1.17509e-05
 Reference value :  1.17516e-05
 Reference value :  1.17522e-05
 Reference value :  1.17528e-05
 Reference value :  1.17535e-05
 Reference value :  1.17544e-05
 Reference value :  1.17551e-05
 Reference value :  1.17559e-05
 Reference value :  1.17568e-05
 Reference value :  1.17577e-05
 Reference value :  1.17588e-05
 Reference value :  1.17607e-05
 Reference value :  1.17632e-05
 Reference value :  1.17662e-05
 Reference value :  1.17705e-05
 Reference value :  1.17769e-05
 Reference value :  1.17898e-05
 Reference value :  1.18155e-05
 Reference value :  1.18669e-05
 Reference value :  1.19697e-05
 Reference value :  1.20000e-05
 Reference value :  1.20000e-05
 Reference value :  1.20000e-05
 Reference value :  1.20001e-05
 Reference value :  1.20001e-05
 Reference value :  1.20001e-05
 Reference value :  1.20001e-05
 Reference value :  1.20001e-05
 Reference value :  1.20002e-05
 Reference value :  1.20002e-05
 Reference value :  1.20004e-05
 Reference value :  1.20006e-05
 Reference value :  1.20009e-05
 Reference value :  1.20014e-05
 Reference value :  1.20020e-05
 Reference value :  1.20026e-05
 Reference value :  1.20033e-05
 Reference value :  1.20040e-05
 Reference value :  1.20049e-05
 Reference value :  1.20058e-05
 Reference value :  1.20068e-05
 Reference value :  1.20080e-05
 Reference value :  1.20093e-05
 Reference value :  1.20105e-05
 Reference value :  1.20117e-05
 Reference value :  1.20135e-05
 Reference value :  1.20149e-05
 Reference value :  1.20165e-05
 Reference value :  1.20180e-05
 Reference value :  1.20199e-05
 Reference value :  1.20234e-05
 Reference value :  1.20285e-05
 Reference value :  1.20387e-05
 Reference value :  1.20590e-05
 Reference value :  1.20997e-05
 Reference value :  1.21811e-05
 Reference value :  1.22501e-05
 Reference value :  1.22501e-05
 Reference value :  1.22501e-05
 Reference value :  1.22502e-05
 Reference value :  1.22502e-05
 Reference value :  1.22502e-05
 Reference value :  1.22502e-05
 Reference value :  1.22502e-05
 Reference value :  1.22502e-05
 Reference value :  1.22502e-05
 Reference value :  1.22502e-05
 Reference value :  1.22503e-05
 Reference value :  1.22504e-05
 Reference value :  1.22506e-05
 Reference value :  1.22509e-05
 Reference value :  1.22516e-05
 Reference value :  1.22522e-05
 Reference value :  1.22528e-05
 Reference value :  1.22535e-05
 Reference value :  1.22544e-05
 Reference value :  1.22551e-05
 Reference value :  1.22560e-05
 Reference value :  1.22567e-05
 Reference value :  1.22575e-05
 Reference value :  1.22585e-05
 Reference value :  1.22596e-05
 Reference value :  1.22608e-05
 Reference value :  1.22625e-05
 Reference value :  1.22645e-05
 Reference value :  1.22672e-05
 Reference value :  1.22707e-05
 Reference value :  1.22752e-05
 Reference value :  1.22843e-05
 Reference value :  1.22981e-05
 Reference value :  1.23256e-05
 Reference value :  1.23806e-05
 Reference value :  1.24907e-05
 Reference value :  1.25000e-05
 Reference value :  1.25000e-05
 Reference value :  1.25000e-05
 Reference value :  1.25001e-05
 Reference value :  1.25001e-05
 Reference value :  1.25001e-05
 Reference value :  1.25001e-05
 Reference value :  1.25001e-05
 Reference value :  1.25002e-05
 Reference value :  1.25002e-05
 Reference value :  1.25004e-05
 Reference value :  1.25006e-05
 Reference value :  1.25009e-05
 Reference value :  1.25014e-05
 Reference value :  1.25020e-05
 Reference value :  1.25026e-05
 Reference value :  1.25034e-05
 Reference value :  1.25041e-05
 Reference value :  1.25050e-05
 Reference value :  1.25057e-05
 Reference value :  1.25065e-05
 Reference value :  1.25072e-05
 Reference value :  1.25080e-05
 Reference value :  1.25089e-05
 Reference value :  1.25099e-05
 Reference value :  1.25112e-05
 Reference value :  1.25132e-05
 Reference value :  1.25146e-05
 Reference value :  1.25161e-05
 Reference value :  1.25177e-05
 Reference value :  1.25194e-05
 Reference value :  1.25210e-05
 Reference value :  1.25223e-05
 Reference value :  1.25238e-05
 Reference value :  1.25251e-05
 Reference value :  1.25266e-05
 Reference value :  1.25281e-05
 Reference value :  1.25297e-05
 Reference value :  1.25324e-05
 Reference value :  1.25353e-05
 Reference value :  1.25410e-05
 Reference value :  1.25517e-05
 Reference value :  1.25682e-05
 Reference value :  1.25871e-05
 Reference value :  1.26098e-05
 Reference value :  1.26301e-05
 Reference value :  1.26519e-05
 Reference value :  1.26669e-05
 Reference value :  1.26804e-05
 Reference value :  1.26951e-05
 Reference value :  1.27119e-05
 Reference value :  1.27303e-05
 Reference value :  1.27501e-05
 Reference value :  1.27501e-05
 Reference value :  1.27501e-05
 Reference value :  1.27502e-05
 Reference value :  1.27502e-05
 Reference value :  1.27502e-05
 Reference value :  1.27502e-05
 Reference value :  1.27502e-05
 Reference value :  1.27502e-05
 Reference value :  1.27502e-05
 Reference value :  1.27502e-05
 Reference value :  1.27503e-05
 Reference value :  1.27504e-05
 Reference value :  1.27506e-05
 Reference value :  1.27509e-05
 Reference value :  1.27516e-05
 Reference value :  1.27522e-05
 Reference value :  1.27528e-05
 Reference value :  1.27535e-05
 Reference value :  1.27544e-05
 Reference value :  1.27551e-05
 Reference value :  1.27560e-05
 Reference value :  1.27568e-05
 Reference value :  1.27577e-05
 Reference value :  1.27589e-05
 Reference value :  1.27608e-05
 Reference value :  1.27632e-05
 Reference value :  1.27663e-05
 Reference value :  1.27706e-05
 Reference value :  1.27772e-05
 Reference value :  1.27903e-05
 Reference value :  1.28165e-05
 Reference value :  1.28689e-05
 Reference value :  1.29737e-05
 Reference value :  1.30000e-05
 Reference value :  1.30000e-05
 Reference value :  1.30000e-05
 Reference value :  1.30001e-05
 Reference value :  1.30001e-05
 Reference value :  1.30001e-05
 Reference value :  1.30001e-05
 Reference value :  1.30001e-05
 Reference value :  1.30002e-05
 Reference value :  1.30002e-05
 Reference value :  1.30004e-05
 Reference value :  1.30006e-05
 Reference value :  1.30009e-05
 Reference value :  1.30014e-05
 Reference value :  1.30020e-05
 Reference value :  1.30026e-05
 Reference value :  1.30033e-05
 Reference value :  1.30040e-05
 Reference value :  1.30049e-05
 Reference value :  1.30058e-05
 Reference value :  1.30068e-05
 Reference value :  1.30080e-05
 Reference value :  1.30092e-05
 Reference value :  1.30104e-05
 Reference value :  1.30116e-05
 Reference value :  1.30133e-05
 Reference value :  1.30147e-05
 Reference value :  1.30162e-05
 Reference value :  1.30178e-05
 Reference value :  1.30197e-05
 Reference value :  1.30231e-05
 Reference value :  1.30281e-05
 Reference value :  1.30381e-05
 Reference value :  1.30571e-05
 Reference value :  1.30938e-05
 Reference value :  1.31673e-05
 Reference value :  1.32501e-05
 Reference value :  1.32501e-05
 Reference value :  1.32501e-05
 Reference value :  1.32502e-05
 Reference value :  1.32502e-05
 Reference value :  1.32502e-05
 Reference value :  1.32502e-05
 Reference value :  1.32502e-05
 Reference value :  1.32502e-05
 Reference value :  1.32502e-05
 Reference value :  1.32502e-05
 Reference value :  1.32503e-05
 Reference value :  1.32504e-05
 Reference value :  1.32506e-05
 Reference value :  1.32509e-05
 Reference value :  1.32515e-05
 Reference value :  1.32521e-05
 Reference value :  1.32528e-05
 Reference value :  1.32535e-05
 Reference value :  1.32544e-05
 Reference value :  1.32551e-05
 Reference value :  1.32560e-05
 Reference value :  1.32567e-05
 Reference value :  1.32575e-05
 Reference value :  1.32585e-05
 Reference value :  1.32597e-05
 Reference value :  1.32608e-05
 Reference value :  1.32625e-05
 Reference value :  1.32646e-05
 Reference value :  1.32672e-05
 Reference value :  1.32708e-05
 Reference value :  1.32753e-05
 Reference value :  1.32843e-05
 Reference value :  1.32986e-05
 Reference value :  1.33272e-05
 Reference value :  1.33843e-05
 Reference value :  1.34984e-05
 Reference value :  1.35000e-05
 Reference value :  1.35000e-05
 Reference value :  1.35000e-05
 Reference value :  1.35001e-05
 Reference value :  1.35001e-05
 Reference value :  1.35001e-05
 Reference value :  1.35001e-05
 Reference value :  1.35001e-05
 Reference value :  1.35002e-05
 Reference value :  1.35002e-05
 Reference value :  1.35004e-05
 Reference value :  1.35006e-05
 Reference value :  1.35009e-05
 Reference value :  1.35014e-05
 Reference value :  1.35020e-05
 Reference value :  1.35026e-05
 Reference value :  1.35034e-05
 Reference value :  1.35041e-05
 Reference value :  1.35050e-05
 Reference value :  1.35057e-05
 Reference value :  1.35065e-05
 Reference value :  1.35072e-05
 Reference value :  1.35080e-05
 Reference value :  1.35089e-05
 Reference value :  1.35100e-05
 Reference value :  1.35113e-05
 Reference value :  1.35133e-05
 Reference value :  1.35147e-05
 Reference value :  1.35162e-05
 Reference value :  1.35178e-05
 Reference value :  1.35195e-05
 Reference value :  1.35212e-05
 Reference value :  1.35225e-05
 Reference value :  1.35240e-05
 Reference value :  1.35252e-05
 Reference value :  1.35267e-05
 Reference value :  1.35282e-05
 Reference value :  1.35297e-05
 Reference value :  1.35323e-05
 Reference value :  1.35353e-05
 Reference value :  1.35413e-05
 Reference value :  1.35522e-05
 Reference value :  1.35636e-05
 Reference value :  1.35741e-05
 Reference value :  1.35848e-05
 Reference value :  1.35926e-05
 Reference value :  1.36000e-05
 Reference value :  1.36119e-05
 Reference value :  1.36225e-05
 Reference value :  1.36334e-05
 Reference value :  1.36539e-05
 Reference value :  1.36772e-05
 Reference value :  1.37015e-05
 Reference value :  1.37248e-05
 Reference value :  1.37477e-05
 Reference value :  1.37501e-05
 Reference value :  1.37501e-05
 Reference value :  1.37501e-05
 Reference value :  1.37502e-05
 Reference value :  1.37502e-05
 Reference value :  1.37502e-05
 Reference value :  1.37502e-05
 Reference value :  1.37502e-05
 Reference value :  1.37502e-05
 Reference value :  1.37502e-05
 Reference value :  1.37502e-05
 Reference value :  1.37503e-05
 Reference value :  1.37504e-05
 Reference value :  1.37506e-05
 Reference value :  1.37509e-05
 Reference value :  1.37516e-05
 Reference value :  1.37522e-05
 Reference value :  1.37528e-05
 Reference value :  1.37535e-05
 Reference value :  1.37544e-05
 Reference value :  1.37551e-05
 Reference value :  1.37559e-05
 Reference value :  1.37568e-05
 Reference value :  1.37577e-05
 Reference value :  1.37588e-05
 Reference value :  1.37608e-05
 Reference value :  1.37632e-05
 Reference value :  1.37663e-05
 Reference value :  1.37706e-05
 Reference value :  1.37772e-05
 Reference value :  1.37905e-05
 Reference value :  1.38172e-05
 Reference value :  1.38704e-05
 Reference value :  1.39473e-05
 Reference value :  1.40000e-05
 Reference value :  1.40000e-05
 Reference value :  1.40000e-05
 Reference value :  1.40001e-05
 Reference value :  1.40001e-05
 Reference value :  1.40001e-05
 Reference value :  1.40001e-05
 Reference value :  1.40001e-05
 Reference value :  1.40002e-05
 Reference value :  1.40002e-05
 Reference value :  1.40004e-05
 Reference value :  1.40006e-05
 Reference value :  1.40009e-05
 Reference value :  1.40014e-05
 Reference value :  1.40020e-05
 Reference value :  1.40026e-05
 Reference value :  1.40033e-05
 Reference value :  1.40040e-05
 Reference value :  1.40049e-05
 Reference value :  1.40059e-05
 Reference value :  1.40069e-05
 Reference value :  1.40081e-05
 Reference value :  1.40093e-05
 Reference value :  1.40107e-05
 Reference value :  1.40120e-05
 Reference value :  1.40136e-05
 Reference value :  1.40153e-05
 Reference value :  1.40171e-05
 Reference value :  1.40192e-05
 Reference value :  1.40227e-05
 Reference value :  1.40278e-05
 Reference value :  1.40371e-05
 Reference value :  1.40542e-05
 Reference value :  1.40850e-05
 Reference value :  1.41450e-05
 Reference value :  1.42501e-05
 Reference value :  1.42501e-05
 Reference value :  1.42501e-05
 Reference value :  1.42502e-05
 Reference value :  1.42502e-05
 Reference value :  1.42502e-05
 Reference value :  1.42502e-05
 Reference value :  1.42502e-05
 Reference value :  1.42502e-05
 Reference value :  1.42502e-05
 Reference value :  1.42502e-05
 Reference value :  1.42503e-05
 Reference value :  1.42504e-05
 Reference value :  1.42506e-05
 Reference value :  1.42509e-05
 Reference value :  1.42516e-05
 Reference value :  1.42522e-05
 Reference value :  1.42528e-05
 Reference value :  1.42535e-05
 Reference value :  1.42544e-05
 Reference value :  1.42551e-05
 Reference value :  1.42560e-05
 Reference value :  1.42567e-05
 Reference value :  1.42575e-05
 Reference value :  1.42585e-05
 Reference value :  1.42596e-05
 Reference value :  1.42607e-05
 Reference value :  1.42624e-05
 Reference value :  1.42642e-05
 Reference value :  1.42671e-05
 Reference value :  1.42704e-05
 Reference value :  1.42750e-05
 Reference value :  1.42842e-05
 Reference value :  1.42962e-05
 Reference value :  1.43199e-05
 Reference value :  1.43653e-05
 Reference value :  1.44534e-05
 Reference value :  1.45000e-05
 Reference value :  1.45000e-05
 Reference value :  1.45000e-05
 Reference value :  1.45001e-05
 Reference value :  1.45001e-05
 Reference value :  1.45001e-05
 Reference value :  1.45001e-05
 Reference value :  1.45001e-05
 Reference value :  1.45002e-05
 Reference value :  1.45002e-05
 Reference value :  1.45004e-05
 Reference value :  1.45006e-05
 Reference value :  1.45009e-05
 Reference value :  1.45014e-05
 Reference value :  1.45020e-05
 Reference value :  1.45026e-05
 Reference value :  1.45034e-05
 Reference value :  1.45041e-05
 Reference value :  1.45050e-05
 Reference value :  1.45057e-05
 Reference value :  1.45065e-05
 Reference value :  1.45072e-05
 Reference value :  1.45081e-05
 Reference value :  1.45090e-05
 Reference value :  1.45100e-05
 Reference value :  1.45116e-05
 Reference value :  1.45135e-05
 Reference value :  1.45149e-05
 Reference value :  1.45164e-05
 Reference value :  1.45180e-05
 Reference value :  1.45198e-05
 Reference value :  1.45215e-05
 Reference value :  1.45228e-05
 Reference value :  1.45242e-05
 Reference value :  1.45254e-05
 Reference value :  1.45268e-05
 Reference value :  1.45282e-05
 Reference value :  1.45297e-05
 Reference value :  1.45322e-05
 Reference value :  1.45350e-05
 Reference value :  1.45407e-05
 Reference value :  1.45478e-05
 Reference value :  1.45554e-05
 Reference value :  1.45615e-05
 Reference value :  1.45676e-05
 Reference value :  1.45746e-05
 Reference value :  1.45816e-05
 Reference value :  1.45884e-05
 Reference value :  1.46019e-05
 Reference value :  1.46251e-05
 Reference value :  1.46624e-05
 Reference value :  1.47354e-05
 Reference value :  1.47501e-05
 Reference value :  1.47501e-05
 Reference value :  1.47501e-05
 Reference value :  1.47502e-05
 Reference value :  1.47502e-05
 Reference value :  1.47502e-05
 Reference value :  1.47502e-05
 Reference value :  1.47502e-05
 Reference value :  1.47502e-05
 Reference value :  1.47502e-05
 Reference value :  1.47502e-05
 Reference value :  1.47503e-05
 Reference value :  1.47504e-05
 Reference value :  1.47506e-05
 Reference value :  1.47509e-05
 Reference value :  1.47516e-05
 Reference value :  1.47522e-05
 Reference value :  1.47528e-05
 Reference value :  1.47535e-05
 Reference value :  1.47544e-05
 Reference value :  1.47552e-05
 Reference value :  1.47560e-05
 Reference value :  1.47569e-05
 Reference value :  1.47578e-05
 Reference value :  1.47589e-05
 Reference value :  1.47608e-05
 Reference value :  1.47632e-05
 Reference value :  1.47664e-05
 Reference value :  1.47707e-05
 Reference value :  1.47775e-05
 Reference value :  1.47912e-05
 Reference value :  1.48173e-05
 Reference value :  1.48697e-05
 Reference value :  1.49744e-05
 Reference value :  1.50000e-05
 Reference value :  1.50000e-05
 Reference value :  1.50000e-05
 Reference value :  1.50001e-05
 Reference value :  1.50001e-05
 Reference value :  1.50001e-05
 Reference value :  1.50001e-05
 Reference value :  1.50001e-05
 Reference value :  1.50002e-05
 Reference value :  1.50002e-05
 Reference value :  1.50004e-05
 Reference value :  1.50006e-05
 Reference value :  1.50009e-05
 Reference value :  1.50014e-05
 Reference value :  1.50020e-05
 Reference value :  1.50026e-05
 Reference value :  1.50034e-05
 Reference value :  1.50041e-05
 Reference value :  1.50049e-05
 Reference value :  1.50058e-05
 Reference value :  1.50067e-05
 Reference value :  1.50078e-05
 Reference value :  1.50092e-05
 Reference value :  1.50104e-05
 Reference value :  1.50117e-05
 Reference value :  1.50135e-05
 Reference value :  1.50152e-05
 Reference value :  1.50169e-05
 Reference value :  1.50188e-05
 Reference value :  1.50210e-05
 Reference value :  1.50246e-05
 Reference value :  1.50299e-05
 Reference value :  1.50389e-05
 Reference value :  1.50553e-05
 Reference value :  1.50842e-05
 Reference value :  1.51386e-05
 Reference value :  1.52385e-05
 Reference value :  1.52501e-05
 Reference value :  1.52501e-05
 Reference value :  1.52501e-05
 Reference value :  1.52502e-05
 Reference value :  1.52502e-05
 Reference value :  1.52502e-05
 Reference value :  1.52502e-05
 Reference value :  1.52502e-05
 Reference value :  1.52502e-05
 Reference value :  1.52502e-05
 Reference value :  1.52502e-05
 Reference value :  1.52503e-05
 Reference value :  1.52504e-05
 Reference value :  1.52506e-05
 Reference value :  1.52509e-05
 Reference value :  1.52516e-05
 Reference value :  1.52522e-05
 Reference value :  1.52528e-05
 Reference value :  1.52535e-05
 Reference value :  1.52544e-05
 Reference value :  1.52551e-05
 Reference value :  1.52560e-05
 Reference value :  1.52567e-05
 Reference value :  1.52575e-05
 Reference value :  1.52585e-05
 Reference value :  1.52596e-05
 Reference value :  1.52617e-05
 Reference value :  1.52640e-05
 Reference value :  1.52680e-05
 Reference value :  1.52723e-05
 Reference value :  1.52809e-05
 Reference value :  1.52981e-05
 Reference value :  1.53325e-05
 Reference value :  1.54012e-05
 Reference value :  1.55000e-05
 Reference value :  1.55014e-05
 Reference value :  1.55042e-05
 Reference value :  1.55057e-05
 Reference value :  1.55071e-05
[...]
 Reference value :  1.74252e-04
 Reference value :  1.74253e-04
 Reference value :  1.74254e-04
 Reference value :  1.74254e-04
 Reference value :  1.74255e-04
 Reference value :  1.74256e-04
 Reference value :  1.74257e-04
 Reference value :  1.74258e-04
 Reference value :  1.74259e-04
 Reference value :  1.74261e-04
 Reference value :  1.74263e-04
 Reference value :  1.74266e-04
 Reference value :  1.74271e-04
 Reference value :  1.74277e-04
 Reference value :  1.74290e-04
 Reference value :  1.74316e-04
 Reference value :  1.74352e-04
 Reference value :  1.74388e-04
 Reference value :  1.74425e-04
 Reference value :  1.74450e-04
 Reference value :  1.74473e-04
 Reference value :  1.74500e-04
 Reference value :  1.74500e-04
 Reference value :  1.74500e-04
 Reference value :  1.74500e-04
 Reference value :  1.74500e-04
 Reference value :  1.74500e-04
 Reference value :  1.74500e-04
 Reference value :  1.74500e-04
 Reference value :  1.74500e-04
 Reference value :  1.74500e-04
 Reference value :  1.74500e-04
 Reference value :  1.74501e-04
 Reference value :  1.74501e-04
 Reference value :  1.74501e-04
 Reference value :  1.74502e-04
 Reference value :  1.74503e-04
 Reference value :  1.74503e-04
 Reference value :  1.74504e-04
 Reference value :  1.74505e-04
 Reference value :  1.74506e-04
 Reference value :  1.74507e-04
 Reference value :  1.74508e-04
 Reference value :  1.74509e-04
 Reference value :  1.74510e-04
 Reference value :  1.74512e-04
 Reference value :  1.74513e-04
 Reference value :  1.74515e-04
 Reference value :  1.74516e-04
 Reference value :  1.74518e-04
 Reference value :  1.74519e-04
 Reference value :  1.74523e-04
 Reference value :  1.74528e-04
 Reference value :  1.74538e-04
 Reference value :  1.74558e-04
 Reference value :  1.74597e-04
 Reference value :  1.74674e-04
 Reference value :  1.74750e-04
 Reference value :  1.74750e-04
 Reference value :  1.74750e-04
 Reference value :  1.74750e-04
 Reference value :  1.74750e-04
 Reference value :  1.74750e-04
 Reference value :  1.74750e-04
 Reference value :  1.74750e-04
 Reference value :  1.74750e-04
 Reference value :  1.74750e-04
 Reference value :  1.74750e-04
 Reference value :  1.74750e-04
 Reference value :  1.74750e-04
 Reference value :  1.74751e-04
 Reference value :  1.74751e-04
 Reference value :  1.74752e-04
 Reference value :  1.74752e-04
 Reference value :  1.74753e-04
 Reference value :  1.74753e-04
 Reference value :  1.74754e-04
 Reference value :  1.74755e-04
 Reference value :  1.74756e-04
 Reference value :  1.74757e-04
 Reference value :  1.74757e-04
 Reference value :  1.74759e-04
 Reference value :  1.74760e-04
 Reference value :  1.74761e-04
 Reference value :  1.74762e-04
 Reference value :  1.74765e-04
 Reference value :  1.74767e-04
 Reference value :  1.74771e-04
 Reference value :  1.74775e-04
 Reference value :  1.74784e-04
 Reference value :  1.74798e-04
 Reference value :  1.74826e-04
 Reference value :  1.74882e-04
 Reference value :  1.74993e-04
 Reference value :  1.75000e-04
 Reference value :  1.75000e-04
 Reference value :  1.75000e-04
 Reference value :  1.75000e-04
 Reference value :  1.75000e-04
 Reference value :  1.75000e-04
 Reference value :  1.75000e-04
 Reference value :  1.75000e-04
 Reference value :  1.75000e-04
 Reference value :  1.75000e-04
 Reference value :  1.75000e-04
 Reference value :  1.75001e-04
 Reference value :  1.75001e-04
 Reference value :  1.75001e-04
 Reference value :  1.75002e-04
 Reference value :  1.75003e-04
 Reference value :  1.75003e-04
 Reference value :  1.75004e-04
 Reference value :  1.75005e-04
 Reference value :  1.75006e-04
 Reference value :  1.75006e-04
 Reference value :  1.75007e-04
 Reference value :  1.75008e-04
 Reference value :  1.75009e-04
 Reference value :  1.75010e-04
 Reference value :  1.75011e-04
 Reference value :  1.75013e-04
 Reference value :  1.75015e-04
 Reference value :  1.75016e-04
 Reference value :  1.75018e-04
 Reference value :  1.75019e-04
 Reference value :  1.75021e-04
 Reference value :  1.75023e-04
 Reference value :  1.75024e-04
 Reference value :  1.75025e-04
 Reference value :  1.75027e-04
 Reference value :  1.75028e-04
 Reference value :  1.75030e-04
 Reference value :  1.75032e-04
 Reference value :  1.75035e-04
 Reference value :  1.75037e-04
 Reference value :  1.75039e-04
 Reference value :  1.75041e-04
 Reference value :  1.75043e-04
 Reference value :  1.75046e-04
 Reference value :  1.75051e-04
 Reference value :  1.75058e-04
 Reference value :  1.75070e-04
 Reference value :  1.75082e-04
 Reference value :  1.75100e-04
 Reference value :  1.75116e-04
 Reference value :  1.75149e-04
 Reference value :  1.75191e-04
 Reference value :  1.75250e-04
 Reference value :  1.75250e-04
 Reference value :  1.75250e-04
 Reference value :  1.75250e-04
 Reference value :  1.75250e-04
 Reference value :  1.75250e-04
 Reference value :  1.75250e-04
 Reference value :  1.75250e-04
 Reference value :  1.75250e-04
 Reference value :  1.75250e-04
 Reference value :  1.75250e-04
 Reference value :  1.75250e-04
 Reference value :  1.75250e-04
 Reference value :  1.75251e-04
 Reference value :  1.75251e-04
 Reference value :  1.75252e-04
 Reference value :  1.75252e-04
 Reference value :  1.75253e-04
 Reference value :  1.75254e-04
 Reference value :  1.75254e-04
 Reference value :  1.75255e-04
 Reference value :  1.75256e-04
 Reference value :  1.75257e-04
 Reference value :  1.75258e-04
 Reference value :  1.75259e-04
 Reference value :  1.75261e-04
 Reference value :  1.75263e-04
 Reference value :  1.75266e-04
 Reference value :  1.75271e-04
 Reference value :  1.75277e-04
 Reference value :  1.75291e-04
 Reference value :  1.75317e-04
 Reference value :  1.75368e-04
 Reference value :  1.75471e-04
 Reference value :  1.75500e-04
 Reference value :  1.75500e-04
 Reference value :  1.75500e-04
 Reference value :  1.75500e-04
 Reference value :  1.75500e-04
 Reference value :  1.75500e-04
 Reference value :  1.75500e-04
 Reference value :  1.75500e-04
 Reference value :  1.75500e-04
 Reference value :  1.75500e-04
 Reference value :  1.75500e-04
 Reference value :  1.75501e-04
 Reference value :  1.75501e-04
 Reference value :  1.75501e-04
 Reference value :  1.75502e-04
 Reference value :  1.75503e-04
 Reference value :  1.75503e-04
 Reference value :  1.75504e-04
 Reference value :  1.75505e-04
 Reference value :  1.75506e-04
 Reference value :  1.75507e-04
 Reference value :  1.75508e-04
 Reference value :  1.75509e-04
 Reference value :  1.75510e-04
 Reference value :  1.75512e-04
 Reference value :  1.75513e-04
 Reference value :  1.75515e-04
 Reference value :  1.75516e-04
 Reference value :  1.75518e-04
 Reference value :  1.75520e-04
 Reference value :  1.75524e-04
 Reference value :  1.75529e-04
 Reference value :  1.75538e-04
 Reference value :  1.75556e-04
 Reference value :  1.75590e-04
 Reference value :  1.75656e-04
 Reference value :  1.75750e-04
 Reference value :  1.75750e-04
 Reference value :  1.75750e-04
 Reference value :  1.75750e-04
 Reference value :  1.75750e-04
 Reference value :  1.75750e-04
 Reference value :  1.75750e-04
 Reference value :  1.75750e-04
 Reference value :  1.75750e-04
 Reference value :  1.75750e-04
 Reference value :  1.75750e-04
 Reference value :  1.75750e-04
 Reference value :  1.75750e-04
 Reference value :  1.75751e-04
 Reference value :  1.75751e-04
 Reference value :  1.75752e-04
 Reference value :  1.75752e-04
 Reference value :  1.75753e-04
 Reference value :  1.75753e-04
 Reference value :  1.75754e-04
 Reference value :  1.75755e-04
 Reference value :  1.75756e-04
 Reference value :  1.75757e-04
 Reference value :  1.75758e-04
 Reference value :  1.75759e-04
 Reference value :  1.75760e-04
 Reference value :  1.75762e-04
 Reference value :  1.75764e-04
 Reference value :  1.75768e-04
 Reference value :  1.75773e-04
 Reference value :  1.75781e-04
 Reference value :  1.75799e-04
 Reference value :  1.75834e-04
 Reference value :  1.75903e-04
 Reference value :  1.76000e-04
 Reference value :  1.76000e-04
 Reference value :  1.76000e-04
 Reference value :  1.76000e-04
 Reference value :  1.76000e-04
 Reference value :  1.76000e-04
 Reference value :  1.76000e-04
 Reference value :  1.76000e-04
 Reference value :  1.76000e-04
 Reference value :  1.76000e-04
 Reference value :  1.76000e-04
 Reference value :  1.76001e-04
 Reference value :  1.76001e-04
 Reference value :  1.76001e-04
 Reference value :  1.76002e-04
 Reference value :  1.76003e-04
 Reference value :  1.76003e-04
 Reference value :  1.76004e-04
 Reference value :  1.76005e-04
 Reference value :  1.76006e-04
 Reference value :  1.76007e-04
 Reference value :  1.76007e-04
 Reference value :  1.76008e-04
 Reference value :  1.76009e-04
 Reference value :  1.76010e-04
 Reference value :  1.76012e-04
 Reference value :  1.76014e-04
 Reference value :  1.76017e-04
 Reference value :  1.76019e-04
 Reference value :  1.76021e-04
 Reference value :  1.76023e-04
 Reference value :  1.76025e-04
 Reference value :  1.76026e-04
 Reference value :  1.76027e-04
 Reference value :  1.76029e-04
 Reference value :  1.76031e-04
 Reference value :  1.76034e-04
 Reference value :  1.76037e-04
 Reference value :  1.76044e-04
 Reference value :  1.76054e-04
 Reference value :  1.76062e-04
 Reference value :  1.76075e-04
 Reference value :  1.76091e-04
 Reference value :  1.76119e-04
 Reference value :  1.76162e-04
 Reference value :  1.76231e-04
 Reference value :  1.76250e-04
 Reference value :  1.76250e-04
 Reference value :  1.76250e-04
 Reference value :  1.76250e-04
 Reference value :  1.76250e-04
 Reference value :  1.76250e-04
 Reference value :  1.76250e-04
 Reference value :  1.76250e-04
 Reference value :  1.76250e-04
 Reference value :  1.76250e-04
 Reference value :  1.76250e-04
 Reference value :  1.76250e-04
 Reference value :  1.76250e-04
 Reference value :  1.76251e-04
 Reference value :  1.76251e-04
 Reference value :  1.76252e-04
 Reference value :  1.76252e-04
 Reference value :  1.76253e-04
 Reference value :  1.76253e-04
 Reference value :  1.76254e-04
 Reference value :  1.76255e-04
 Reference value :  1.76256e-04
 Reference value :  1.76257e-04
 Reference value :  1.76258e-04
 Reference value :  1.76259e-04
 Reference value :  1.76261e-04
 Reference value :  1.76263e-04
 Reference value :  1.76266e-04
 Reference value :  1.76271e-04
 Reference value :  1.76278e-04
 Reference value :  1.76292e-04
 Reference value :  1.76318e-04
 Reference value :  1.76371e-04
 Reference value :  1.76476e-04
 Reference value :  1.76500e-04
 Reference value :  1.76500e-04
 Reference value :  1.76500e-04
 Reference value :  1.76500e-04
 Reference value :  1.76500e-04
 Reference value :  1.76500e-04
 Reference value :  1.76500e-04
 Reference value :  1.76500e-04
 Reference value :  1.76500e-04
 Reference value :  1.76500e-04
 Reference value :  1.76500e-04
 Reference value :  1.76501e-04
 Reference value :  1.76501e-04
 Reference value :  1.76501e-04
 Reference value :  1.76502e-04
 Reference value :  1.76503e-04
 Reference value :  1.76503e-04
 Reference value :  1.76504e-04
 Reference value :  1.76505e-04
 Reference value :  1.76506e-04
 Reference value :  1.76507e-04
 Reference value :  1.76508e-04
 Reference value :  1.76509e-04
 Reference value :  1.76510e-04
 Reference value :  1.76512e-04
 Reference value :  1.76514e-04
 Reference value :  1.76515e-04
 Reference value :  1.76517e-04
 Reference value :  1.76519e-04
 Reference value :  1.76521e-04
 Reference value :  1.76525e-04
 Reference value :  1.76530e-04
 Reference value :  1.76539e-04
 Reference value :  1.76555e-04
 Reference value :  1.76584e-04
 Reference value :  1.76638e-04
 Reference value :  1.76738e-04
 Reference value :  1.76750e-04
 Reference value :  1.76750e-04
 Reference value :  1.76750e-04
 Reference value :  1.76750e-04
 Reference value :  1.76750e-04
 Reference value :  1.76750e-04
 Reference value :  1.76750e-04
 Reference value :  1.76750e-04
 Reference value :  1.76750e-04
 Reference value :  1.76750e-04
 Reference value :  1.76750e-04
 Reference value :  1.76750e-04
 Reference value :  1.76750e-04
 Reference value :  1.76751e-04
 Reference value :  1.76751e-04
 Reference value :  1.76752e-04
 Reference value :  1.76752e-04
 Reference value :  1.76753e-04
 Reference value :  1.76754e-04
 Reference value :  1.76754e-04
 Reference value :  1.76755e-04
 Reference value :  1.76756e-04
 Reference value :  1.76757e-04
 Reference value :  1.76757e-04
 Reference value :  1.76758e-04
 Reference value :  1.76760e-04
 Reference value :  1.76762e-04
 Reference value :  1.76764e-04
 Reference value :  1.76768e-04
 Reference value :  1.76772e-04
 Reference value :  1.76781e-04
 Reference value :  1.76798e-04
 Reference value :  1.76832e-04
 Reference value :  1.76901e-04
 Reference value :  1.77000e-04
 Reference value :  1.77000e-04
 Reference value :  1.77000e-04
 Reference value :  1.77000e-04
 Reference value :  1.77000e-04
 Reference value :  1.77000e-04
 Reference value :  1.77000e-04
 Reference value :  1.77000e-04
 Reference value :  1.77000e-04
 Reference value :  1.77000e-04
 Reference value :  1.77000e-04
 Reference value :  1.77001e-04
 Reference value :  1.77001e-04
 Reference value :  1.77001e-04
 Reference value :  1.77002e-04
 Reference value :  1.77003e-04
 Reference value :  1.77003e-04
 Reference value :  1.77004e-04
 Reference value :  1.77005e-04
 Reference value :  1.77006e-04
 Reference value :  1.77007e-04
 Reference value :  1.77007e-04
 Reference value :  1.77008e-04
 Reference value :  1.77009e-04
 Reference value :  1.77010e-04
 Reference value :  1.77012e-04
 Reference value :  1.77014e-04
 Reference value :  1.77017e-04
 Reference value :  1.77019e-04
 Reference value :  1.77022e-04
 Reference value :  1.77024e-04
 Reference value :  1.77025e-04
 Reference value :  1.77027e-04
 Reference value :  1.77028e-04
 Reference value :  1.77030e-04
 Reference value :  1.77033e-04
 Reference value :  1.77035e-04
 Reference value :  1.77040e-04
 Reference value :  1.77044e-04
 Reference value :  1.77052e-04
 Reference value :  1.77061e-04
 Reference value :  1.77079e-04
 Reference value :  1.77105e-04
 Reference value :  1.77144e-04
 Reference value :  1.77185e-04
 Reference value :  1.77238e-04
 Reference value :  1.77250e-04
 Reference value :  1.77250e-04
 Reference value :  1.77250e-04
 Reference value :  1.77250e-04
 Reference value :  1.77250e-04
 Reference value :  1.77250e-04
 Reference value :  1.77250e-04
 Reference value :  1.77250e-04
 Reference value :  1.77250e-04
 Reference value :  1.77250e-04
 Reference value :  1.77250e-04
 Reference value :  1.77250e-04
 Reference value :  1.77250e-04
 Reference value :  1.77251e-04
 Reference value :  1.77251e-04
 Reference value :  1.77252e-04
 Reference value :  1.77252e-04
 Reference value :  1.77253e-04
 Reference value :  1.77254e-04
 Reference value :  1.77254e-04
 Reference value :  1.77255e-04
 Reference value :  1.77256e-04
 Reference value :  1.77257e-04
 Reference value :  1.77258e-04
 Reference value :  1.77259e-04
 Reference value :  1.77261e-04
 Reference value :  1.77263e-04
 Reference value :  1.77266e-04
 Reference value :  1.77271e-04
 Reference value :  1.77277e-04
 Reference value :  1.77290e-04
 Reference value :  1.77317e-04
 Reference value :  1.77370e-04
 Reference value :  1.77476e-04
 Reference value :  1.77500e-04
 Reference value :  1.77500e-04
 Reference value :  1.77500e-04
 Reference value :  1.77500e-04
 Reference value :  1.77500e-04
 Reference value :  1.77500e-04
 Reference value :  1.77500e-04
 Reference value :  1.77500e-04
 Reference value :  1.77500e-04
 Reference value :  1.77500e-04
 Reference value :  1.77500e-04
 Reference value :  1.77501e-04
 Reference value :  1.77501e-04
 Reference value :  1.77501e-04
 Reference value :  1.77502e-04
 Reference value :  1.77503e-04
 Reference value :  1.77503e-04
 Reference value :  1.77504e-04
 Reference value :  1.77505e-04
 Reference value :  1.77506e-04
 Reference value :  1.77507e-04
 Reference value :  1.77508e-04
 Reference value :  1.77509e-04
 Reference value :  1.77511e-04
 Reference value :  1.77512e-04
 Reference value :  1.77513e-04
 Reference value :  1.77515e-04
 Reference value :  1.77516e-04
 Reference value :  1.77518e-04
 Reference value :  1.77520e-04
 Reference value :  1.77523e-04
 Reference value :  1.77528e-04
 Reference value :  1.77538e-04
 Reference value :  1.77557e-04
 Reference value :  1.77593e-04
 Reference value :  1.77666e-04
 Reference value :  1.77750e-04
 Reference value :  1.77750e-04
 Reference value :  1.77750e-04
 Reference value :  1.77750e-04
 Reference value :  1.77750e-04
 Reference value :  1.77750e-04
 Reference value :  1.77750e-04
 Reference value :  1.77750e-04
 Reference value :  1.77750e-04
 Reference value :  1.77750e-04
 Reference value :  1.77750e-04
 Reference value :  1.77750e-04
 Reference value :  1.77750e-04
 Reference value :  1.77751e-04
 Reference value :  1.77751e-04
 Reference value :  1.77752e-04
 Reference value :  1.77752e-04
 Reference value :  1.77753e-04
 Reference value :  1.77754e-04
 Reference value :  1.77754e-04
 Reference value :  1.77755e-04
 Reference value :  1.77756e-04
 Reference value :  1.77757e-04
 Reference value :  1.77757e-04
 Reference value :  1.77758e-04
 Reference value :  1.77760e-04
 Reference value :  1.77762e-04
 Reference value :  1.77764e-04
 Reference value :  1.77768e-04
 Reference value :  1.77772e-04
 Reference value :  1.77781e-04
 Reference value :  1.77798e-04
 Reference value :  1.77833e-04
 Reference value :  1.77902e-04
 Reference value :  1.78000e-04
 Reference value :  1.78000e-04
 Reference value :  1.78000e-04
 Reference value :  1.78000e-04
 Reference value :  1.78000e-04
 Reference value :  1.78000e-04
 Reference value :  1.78000e-04
 Reference value :  1.78000e-04
 Reference value :  1.78000e-04
 Reference value :  1.78000e-04
 Reference value :  1.78000e-04
 Reference value :  1.78001e-04
 Reference value :  1.78001e-04
 Reference value :  1.78001e-04
 Reference value :  1.78002e-04
 Reference value :  1.78003e-04
 Reference value :  1.78003e-04
 Reference value :  1.78004e-04
 Reference value :  1.78005e-04
 Reference value :  1.78006e-04
 Reference value :  1.78007e-04
 Reference value :  1.78007e-04
 Reference value :  1.78008e-04
 Reference value :  1.78009e-04
 Reference value :  1.78010e-04
 Reference value :  1.78012e-04
 Reference value :  1.78014e-04
 Reference value :  1.78017e-04
 Reference value :  1.78020e-04
 Reference value :  1.78023e-04
 Reference value :  1.78025e-04
 Reference value :  1.78028e-04
 Reference value :  1.78034e-04
 Reference value :  1.78042e-04
 Reference value :  1.78054e-04
 Reference value :  1.78077e-04
 Reference value :  1.78121e-04
 Reference value :  1.78210e-04
 Reference value :  1.78250e-04
 Reference value :  1.78250e-04
 Reference value :  1.78250e-04
 Reference value :  1.78250e-04
 Reference value :  1.78250e-04
 Reference value :  1.78250e-04
 Reference value :  1.78250e-04
 Reference value :  1.78250e-04
 Reference value :  1.78250e-04
 Reference value :  1.78250e-04
 Reference value :  1.78250e-04
 Reference value :  1.78250e-04
 Reference value :  1.78250e-04
 Reference value :  1.78251e-04
 Reference value :  1.78251e-04
 Reference value :  1.78252e-04
 Reference value :  1.78252e-04
 Reference value :  1.78253e-04
 Reference value :  1.78254e-04
 Reference value :  1.78254e-04
 Reference value :  1.78255e-04
 Reference value :  1.78257e-04
 Reference value :  1.78258e-04
 Reference value :  1.78259e-04
 Reference value :  1.78262e-04
 Reference value :  1.78265e-04
 Reference value :  1.78269e-04
 Reference value :  1.78273e-04
 Reference value :  1.78283e-04
 Reference value :  1.78302e-04
 Reference value :  1.78340e-04
 Reference value :  1.78416e-04
 Reference value :  1.78500e-04
No. of Data Rows : 28056
ngspice-44 done
