
Note: Compatibility modes selected: hs a


Circuit: ** sch_path: /home/audrey/cace/sar-adc-using-sky130-pdk/runs/run_2025-08-29_21-01-35/parameters/power/run_5/power_consumption.sch

option SCALE: Scale is set to 1e-06 for instance and model parameters
option SCALE: Scale is set to 1e-06 for instance and model parameters
option SCALE: Scale is set to 1e-06 for instance and model parameters
option SCALE: Scale is set to 1e-06 for instance and model parameters
Doing analysis at TEMP = 27.000000 and TNOM = 27.000000

Using KLU as Direct Linear Solver
Operating point simulation skipped by 'uic',
  now using transient initial conditions.
 Reference value :  5.00000e-12
 Reference value :  5.13207e-12
 Reference value :  5.39620e-12
 Reference value :  5.92447e-12
 Reference value :  6.98101e-12
 Reference value :  8.85770e-12
 Reference value :  1.19006e-11
 Reference value :  1.73610e-11
 Reference value :  2.79446e-11
 Reference value :  4.12980e-11
 Reference value :  6.53228e-11
 Reference value :  9.42367e-11
 Reference value :  1.45959e-10
 Reference value :  2.06675e-10
 Reference value :  3.28106e-10
 Reference value :  4.62196e-10
 Reference value :  5.00000e-10
 Reference value :  5.04502e-10
 Reference value :  5.13507e-10
 Reference value :  5.31517e-10
 Reference value :  5.67536e-10
 Reference value :  6.39574e-10
 Reference value :  7.83651e-10
 Reference value :  1.07180e-09
 Reference value :  1.64811e-09
 Reference value :  2.77970e-09
 Reference value :  3.95487e-09
 Reference value :  6.30521e-09
 Reference value :  1.03420e-08
 Reference value :  1.49775e-08
 Reference value :  2.42484e-08
 Reference value :  3.51826e-08
 Reference value :  5.25947e-08
 Reference value :  7.60984e-08
 Reference value :  1.23106e-07
 Reference value :  2.17121e-07
 Reference value :  4.05151e-07
 Reference value :  5.00000e-07
 Reference value :  5.37606e-07
 Reference value :  6.12818e-07
 Reference value :  7.63242e-07
 Reference value :  1.00050e-06
 Reference value :  1.00055e-06
 Reference value :  1.00065e-06
 Reference value :  1.00085e-06
 Reference value :  1.00100e-06
 Reference value :  1.00103e-06
 Reference value :  1.00110e-06
 Reference value :  1.00124e-06
 Reference value :  1.00151e-06
 Reference value :  1.00198e-06
 Reference value :  1.00253e-06
 Reference value :  1.00338e-06
 Reference value :  1.00465e-06
 Reference value :  1.00675e-06
 Reference value :  1.01060e-06
 Reference value :  1.01593e-06
 Reference value :  1.02399e-06
 Reference value :  1.03288e-06
 Reference value :  1.04256e-06
 Reference value :  1.05338e-06
 Reference value :  1.06520e-06
 Reference value :  1.07616e-06
 Reference value :  1.08491e-06
 Reference value :  1.09207e-06
 Reference value :  1.09799e-06
 Reference value :  1.10273e-06
 Reference value :  1.10761e-06
 Reference value :  1.11254e-06
 Reference value :  1.11631e-06
 Reference value :  1.12044e-06
 Reference value :  1.12430e-06
 Reference value :  1.12827e-06
 Reference value :  1.13251e-06
 Reference value :  1.13771e-06
 Reference value :  1.14278e-06
 Reference value :  1.14934e-06
 Reference value :  1.15826e-06
 Reference value :  1.16556e-06
 Reference value :  1.17305e-06
 Reference value :  1.18320e-06
 Reference value :  1.19497e-06
 Reference value :  1.21123e-06
 Reference value :  1.22937e-06
 Reference value :  1.24455e-06
 Reference value :  1.25644e-06
 Reference value :  1.26879e-06
 Reference value :  1.28003e-06
 Reference value :  1.29316e-06
 Reference value :  1.30734e-06
 Reference value :  1.32264e-06
 Reference value :  1.33975e-06
 Reference value :  1.36640e-06
 Reference value :  1.40149e-06
 Reference value :  1.44441e-06
 Reference value :  1.47653e-06
 Reference value :  1.51121e-06
 Reference value :  1.54586e-06
 Reference value :  1.56727e-06
 Reference value :  1.59120e-06
 Reference value :  1.61342e-06
 Reference value :  1.63743e-06
 Reference value :  1.67117e-06
 Reference value :  1.70938e-06
 Reference value :  1.74166e-06
 Reference value :  1.76228e-06
 Reference value :  1.77765e-06
 Reference value :  1.79450e-06
 Reference value :  1.81414e-06
 Reference value :  1.83325e-06
 Reference value :  1.86000e-06
 Reference value :  1.89051e-06
 Reference value :  1.93139e-06
 Reference value :  1.98466e-06
 Reference value :  2.00000e-06
 Reference value :  2.00005e-06
 Reference value :  2.00015e-06
 Reference value :  2.00035e-06
 Reference value :  2.00050e-06
 Reference value :  2.00051e-06
 Reference value :  2.00053e-06
 Reference value :  2.00058e-06
 Reference value :  2.00067e-06
 Reference value :  2.00084e-06
 Reference value :  2.00119e-06
 Reference value :  2.00190e-06
 Reference value :  2.00331e-06
 Reference value :  2.00517e-06
 Reference value :  2.00768e-06
 Reference value :  2.01182e-06
 Reference value :  2.01651e-06
 Reference value :  2.02187e-06
 Reference value :  2.03226e-06
 Reference value :  2.04754e-06
 Reference value :  2.07752e-06
 Reference value :  2.13507e-06
 Reference value :  2.24321e-06
 Reference value :  2.36976e-06
 Reference value :  2.52359e-06
 Reference value :  2.68819e-06
 Reference value :  2.84933e-06
 Reference value :  2.96354e-06
 Reference value :  3.00050e-06
 Reference value :  3.00055e-06
 Reference value :  3.00065e-06
 Reference value :  3.00085e-06
 Reference value :  3.00100e-06
 Reference value :  3.00103e-06
 Reference value :  3.00109e-06
 Reference value :  3.00121e-06
 Reference value :  3.00144e-06
 Reference value :  3.00174e-06
 Reference value :  3.00211e-06
 Reference value :  3.00268e-06
 Reference value :  3.00381e-06
 Reference value :  3.00606e-06
 Reference value :  3.01057e-06
 Reference value :  3.01960e-06
 Reference value :  3.03764e-06
 Reference value :  3.06885e-06
 Reference value :  3.10480e-06
 Reference value :  3.15963e-06
 Reference value :  3.21185e-06
 Reference value :  3.25270e-06
 Reference value :  3.28630e-06
 Reference value :  3.32099e-06
 Reference value :  3.35359e-06
 Reference value :  3.39184e-06
 Reference value :  3.43178e-06
 Reference value :  3.47921e-06
 Reference value :  3.53577e-06
 Reference value :  3.60496e-06
 Reference value :  3.69372e-06
 Reference value :  3.80807e-06
 Reference value :  3.93428e-06
 Reference value :  4.00000e-06
 Reference value :  4.00005e-06
 Reference value :  4.00015e-06
 Reference value :  4.00035e-06
 Reference value :  4.00050e-06
 Reference value :  4.00051e-06
 Reference value :  4.00054e-06
 Reference value :  4.00059e-06
 Reference value :  4.00070e-06
 Reference value :  4.00092e-06
 Reference value :  4.00135e-06
 Reference value :  4.00221e-06
 Reference value :  4.00393e-06
 Reference value :  4.00737e-06
 Reference value :  4.01216e-06
 Reference value :  4.01751e-06
 Reference value :  4.02821e-06
 Reference value :  4.04030e-06
 Reference value :  4.05784e-06
 Reference value :  4.07658e-06
 Reference value :  4.11405e-06
 Reference value :  4.15413e-06
 Reference value :  4.20646e-06
 Reference value :  4.26549e-06
 Reference value :  4.30365e-06
 Reference value :  4.34148e-06
 Reference value :  4.38571e-06
 Reference value :  4.44283e-06
 Reference value :  4.49837e-06
 Reference value :  4.57577e-06
 Reference value :  4.67496e-06
 Reference value :  4.80318e-06
 Reference value :  4.99095e-06
 Reference value :  5.00050e-06
 Reference value :  5.00055e-06
 Reference value :  5.00065e-06
 Reference value :  5.00085e-06
 Reference value :  5.00100e-06
 Reference value :  5.00103e-06
 Reference value :  5.00109e-06
 Reference value :  5.00122e-06
 Reference value :  5.00147e-06
 Reference value :  5.00177e-06
 Reference value :  5.00216e-06
 Reference value :  5.00274e-06
 Reference value :  5.00390e-06
 Reference value :  5.00622e-06
 Reference value :  5.01086e-06
 Reference value :  5.02013e-06
 Reference value :  5.03869e-06
 Reference value :  5.07313e-06
 Reference value :  5.11341e-06
 Reference value :  5.17761e-06
 Reference value :  5.26625e-06
 Reference value :  5.42218e-06
 Reference value :  5.63564e-06
 Reference value :  5.93469e-06
 Reference value :  6.00000e-06
 Reference value :  6.00005e-06
 Reference value :  6.00015e-06
 Reference value :  6.00035e-06
 Reference value :  6.00050e-06
 Reference value :  6.00051e-06
 Reference value :  6.00054e-06
 Reference value :  6.00059e-06
 Reference value :  6.00069e-06
 Reference value :  6.00089e-06
 Reference value :  6.00128e-06
 Reference value :  6.00208e-06
 Reference value :  6.00367e-06
 Reference value :  6.00686e-06
 Reference value :  6.01055e-06
 Reference value :  6.01585e-06
 Reference value :  6.02646e-06
 Reference value :  6.03662e-06
 Reference value :  6.05463e-06
 Reference value :  6.07107e-06
 Reference value :  6.10395e-06
 Reference value :  6.16972e-06
 Reference value :  6.27170e-06
 Reference value :  6.47282e-06
 Reference value :  6.75331e-06
 Reference value :  7.00050e-06
 Reference value :  7.00055e-06
 Reference value :  7.00065e-06
 Reference value :  7.00085e-06
 Reference value :  7.00100e-06
 Reference value :  7.00103e-06
 Reference value :  7.00109e-06
 Reference value :  7.00121e-06
 Reference value :  7.00144e-06
 Reference value :  7.00174e-06
 Reference value :  7.00211e-06
 Reference value :  7.00267e-06
 Reference value :  7.00380e-06
 Reference value :  7.00605e-06
 Reference value :  7.01054e-06
 Reference value :  7.01953e-06
 Reference value :  7.03751e-06
 Reference value :  7.06821e-06
 Reference value :  7.10542e-06
 Reference value :  7.16218e-06
 Reference value :  7.24267e-06
 Reference value :  7.37527e-06
 Reference value :  7.55530e-06
 Reference value :  7.82299e-06
 Reference value :  8.00000e-06
 Reference value :  8.00005e-06
 Reference value :  8.00015e-06
 Reference value :  8.00035e-06
 Reference value :  8.00050e-06
 Reference value :  8.00051e-06
 Reference value :  8.00054e-06
 Reference value :  8.00058e-06
 Reference value :  8.00068e-06
 Reference value :  8.00087e-06
 Reference value :  8.00125e-06
 Reference value :  8.00201e-06
 Reference value :  8.00353e-06
 Reference value :  8.00657e-06
 Reference value :  8.01034e-06
 Reference value :  8.01534e-06
 Reference value :  8.02534e-06
 Reference value :  8.03547e-06
 Reference value :  8.05100e-06
 Reference value :  8.06732e-06
 Reference value :  8.09997e-06
 Reference value :  8.16525e-06
 Reference value :  8.28992e-06
 Reference value :  8.46545e-06
 Reference value :  8.77702e-06
 Reference value :  9.00050e-06
 Reference value :  9.00055e-06
 Reference value :  9.00065e-06
 Reference value :  9.00085e-06
 Reference value :  9.00100e-06
 Reference value :  9.00103e-06
 Reference value :  9.00109e-06
 Reference value :  9.00120e-06
 Reference value :  9.00144e-06
 Reference value :  9.00173e-06
 Reference value :  9.00210e-06
 Reference value :  9.00266e-06
 Reference value :  9.00377e-06
 Reference value :  9.00599e-06
 Reference value :  9.01044e-06
 Reference value :  9.01935e-06
 Reference value :  9.03715e-06
 Reference value :  9.06625e-06
 Reference value :  9.10263e-06
 Reference value :  9.15749e-06
 Reference value :  9.23705e-06
 Reference value :  9.34908e-06
 Reference value :  9.51767e-06
 Reference value :  9.76794e-06
 Reference value :  1.00000e-05
 Reference value :  1.00000e-05
 Reference value :  1.00001e-05
 Reference value :  1.00003e-05
 Reference value :  1.00005e-05
 Reference value :  1.00005e-05
 Reference value :  1.00005e-05
 Reference value :  1.00006e-05
 Reference value :  1.00007e-05
 Reference value :  1.00009e-05
 Reference value :  1.00012e-05
 Reference value :  1.00020e-05
 Reference value :  1.00035e-05
 Reference value :  1.00064e-05
 Reference value :  1.00102e-05
 Reference value :  1.00150e-05
 Reference value :  1.00248e-05
 Reference value :  1.00347e-05
 Reference value :  1.00499e-05
 Reference value :  1.00658e-05
 Reference value :  1.00978e-05
 Reference value :  1.01618e-05
 Reference value :  1.02868e-05
 Reference value :  1.04589e-05
 Reference value :  1.07678e-05
 Reference value :  1.10005e-05
 Reference value :  1.10005e-05
 Reference value :  1.10006e-05
 Reference value :  1.10008e-05
 Reference value :  1.10010e-05
 Reference value :  1.10010e-05
 Reference value :  1.10011e-05
 Reference value :  1.10012e-05
 Reference value :  1.10014e-05
 Reference value :  1.10017e-05
 Reference value :  1.10021e-05
 Reference value :  1.10026e-05
 Reference value :  1.10038e-05
 Reference value :  1.10060e-05
 Reference value :  1.10104e-05
 Reference value :  1.10192e-05
 Reference value :  1.10370e-05
 Reference value :  1.10652e-05
 Reference value :  1.11014e-05
 Reference value :  1.11551e-05
 Reference value :  1.12250e-05
 Reference value :  1.13424e-05
 Reference value :  1.14935e-05
 Reference value :  1.17526e-05
 Reference value :  1.20000e-05
 Reference value :  1.20000e-05
 Reference value :  1.20001e-05
 Reference value :  1.20003e-05
 Reference value :  1.20005e-05
 Reference value :  1.20005e-05
 Reference value :  1.20005e-05
 Reference value :  1.20006e-05
 Reference value :  1.20007e-05
 Reference value :  1.20009e-05
 Reference value :  1.20012e-05
 Reference value :  1.20020e-05
 Reference value :  1.20034e-05
 Reference value :  1.20064e-05
 Reference value :  1.20101e-05
 Reference value :  1.20150e-05
 Reference value :  1.20247e-05
 Reference value :  1.20346e-05
 Reference value :  1.20496e-05
 Reference value :  1.20656e-05
 Reference value :  1.20975e-05
 Reference value :  1.21612e-05
 Reference value :  1.22862e-05
 Reference value :  1.24572e-05
 Reference value :  1.27656e-05
 Reference value :  1.30005e-05
 Reference value :  1.30006e-05
 Reference value :  1.30007e-05
 Reference value :  1.30009e-05
 Reference value :  1.30010e-05
 Reference value :  1.30010e-05
 Reference value :  1.30011e-05
 Reference value :  1.30012e-05
 Reference value :  1.30014e-05
 Reference value :  1.30017e-05
 Reference value :  1.30021e-05
 Reference value :  1.30026e-05
 Reference value :  1.30038e-05
 Reference value :  1.30060e-05
 Reference value :  1.30104e-05
 Reference value :  1.30192e-05
 Reference value :  1.30369e-05
 Reference value :  1.30651e-05
 Reference value :  1.31011e-05
 Reference value :  1.31546e-05
 Reference value :  1.32242e-05
 Reference value :  1.33410e-05
 Reference value :  1.34909e-05
 Reference value :  1.37494e-05
 Reference value :  1.40000e-05
 Reference value :  1.40000e-05
 Reference value :  1.40002e-05
 Reference value :  1.40004e-05
 Reference value :  1.40005e-05
 Reference value :  1.40005e-05
 Reference value :  1.40005e-05
 Reference value :  1.40006e-05
 Reference value :  1.40007e-05
 Reference value :  1.40009e-05
 Reference value :  1.40012e-05
 Reference value :  1.40020e-05
 Reference value :  1.40034e-05
 Reference value :  1.40064e-05
 Reference value :  1.40101e-05
 Reference value :  1.40150e-05
 Reference value :  1.40246e-05
 Reference value :  1.40346e-05
 Reference value :  1.40496e-05
 Reference value :  1.40655e-05
 Reference value :  1.40974e-05
 Reference value :  1.41611e-05
 Reference value :  1.42860e-05
 Reference value :  1.44568e-05
 Reference value :  1.47651e-05
 Reference value :  1.50005e-05
 Reference value :  1.50005e-05
 Reference value :  1.50007e-05
 Reference value :  1.50009e-05
 Reference value :  1.50010e-05
 Reference value :  1.50010e-05
 Reference value :  1.50011e-05
 Reference value :  1.50012e-05
 Reference value :  1.50014e-05
 Reference value :  1.50017e-05
 Reference value :  1.50021e-05
 Reference value :  1.50026e-05
 Reference value :  1.50037e-05
 Reference value :  1.50060e-05
 Reference value :  1.50104e-05
 Reference value :  1.50192e-05
 Reference value :  1.50369e-05
 Reference value :  1.50651e-05
 Reference value :  1.51011e-05
 Reference value :  1.51545e-05
 Reference value :  1.52241e-05
 Reference value :  1.53407e-05
 Reference value :  1.54903e-05
 Reference value :  1.57487e-05
 Reference value :  1.60000e-05
 Reference value :  1.60000e-05
 Reference value :  1.60001e-05
 Reference value :  1.60004e-05
 Reference value :  1.60005e-05
 Reference value :  1.60005e-05
 Reference value :  1.60005e-05
 Reference value :  1.60006e-05
 Reference value :  1.60007e-05
 Reference value :  1.60009e-05
 Reference value :  1.60012e-05
 Reference value :  1.60020e-05
 Reference value :  1.60034e-05
 Reference value :  1.60064e-05
 Reference value :  1.60101e-05
 Reference value :  1.60150e-05
 Reference value :  1.60246e-05
 Reference value :  1.60346e-05
 Reference value :  1.60496e-05
 Reference value :  1.60655e-05
 Reference value :  1.60973e-05
 Reference value :  1.61610e-05
 Reference value :  1.62859e-05
 Reference value :  1.64567e-05
 Reference value :  1.67650e-05
 Reference value :  1.70005e-05
 Reference value :  1.70006e-05
 Reference value :  1.70007e-05
 Reference value :  1.70009e-05
 Reference value :  1.70010e-05
 Reference value :  1.70010e-05
 Reference value :  1.70011e-05
 Reference value :  1.70012e-05
 Reference value :  1.70014e-05
 Reference value :  1.70017e-05
 Reference value :  1.70021e-05
 Reference value :  1.70026e-05
 Reference value :  1.70037e-05
 Reference value :  1.70060e-05
 Reference value :  1.70104e-05
 Reference value :  1.70192e-05
 Reference value :  1.70369e-05
 Reference value :  1.70651e-05
 Reference value :  1.71011e-05
 Reference value :  1.71545e-05
 Reference value :  1.72240e-05
 Reference value :  1.73406e-05
 Reference value :  1.74901e-05
 Reference value :  1.77484e-05
 Reference value :  1.80000e-05
 Reference value :  1.80001e-05
 Reference value :  1.80002e-05
 Reference value :  1.80004e-05
 Reference value :  1.80005e-05
 Reference value :  1.80005e-05
 Reference value :  1.80005e-05
 Reference value :  1.80006e-05
 Reference value :  1.80007e-05
 Reference value :  1.80009e-05
 Reference value :  1.80012e-05
 Reference value :  1.80020e-05
 Reference value :  1.80034e-05
 Reference value :  1.80064e-05
 Reference value :  1.80101e-05
 Reference value :  1.80150e-05
 Reference value :  1.80246e-05
 Reference value :  1.80346e-05
 Reference value :  1.80496e-05
 Reference value :  1.80655e-05
 Reference value :  1.80973e-05
 Reference value :  1.81610e-05
 Reference value :  1.82859e-05
 Reference value :  1.84567e-05
 Reference value :  1.87649e-05
 Reference value :  1.90005e-05
 Reference value :  1.90006e-05
 Reference value :  1.90007e-05
 Reference value :  1.90009e-05
 Reference value :  1.90010e-05
 Reference value :  1.90010e-05
 Reference value :  1.90011e-05
 Reference value :  1.90012e-05
 Reference value :  1.90014e-05
 Reference value :  1.90017e-05
 Reference value :  1.90021e-05
 Reference value :  1.90026e-05
 Reference value :  1.90037e-05
 Reference value :  1.90060e-05
 Reference value :  1.90104e-05
 Reference value :  1.90192e-05
 Reference value :  1.90369e-05
 Reference value :  1.90651e-05
 Reference value :  1.91011e-05
 Reference value :  1.91545e-05
 Reference value :  1.92240e-05
 Reference value :  1.93406e-05
 Reference value :  1.94901e-05
 Reference value :  1.97484e-05
 Reference value :  2.00000e-05
 Reference value :  2.00001e-05
 Reference value :  2.00002e-05
 Reference value :  2.00004e-05
 Reference value :  2.00005e-05
 Reference value :  2.00005e-05
 Reference value :  2.00005e-05
 Reference value :  2.00006e-05
 Reference value :  2.00007e-05
 Reference value :  2.00009e-05
 Reference value :  2.00012e-05
 Reference value :  2.00020e-05
 Reference value :  2.00034e-05
 Reference value :  2.00064e-05
 Reference value :  2.00101e-05
 Reference value :  2.00150e-05
 Reference value :  2.00246e-05
 Reference value :  2.00346e-05
 Reference value :  2.00496e-05
 Reference value :  2.00655e-05
 Reference value :  2.00973e-05
 Reference value :  2.01610e-05
 Reference value :  2.02859e-05
 Reference value :  2.04567e-05
 Reference value :  2.07649e-05
 Reference value :  2.10005e-05
 Reference value :  2.10005e-05
 Reference value :  2.10006e-05
 Reference value :  2.10008e-05
 Reference value :  2.10010e-05
 Reference value :  2.10010e-05
 Reference value :  2.10011e-05
 Reference value :  2.10012e-05
 Reference value :  2.10014e-05
 Reference value :  2.10017e-05
 Reference value :  2.10021e-05
 Reference value :  2.10026e-05
 Reference value :  2.10037e-05
 Reference value :  2.10060e-05
 Reference value :  2.10104e-05
 Reference value :  2.10192e-05
 Reference value :  2.10369e-05
 Reference value :  2.10651e-05
 Reference value :  2.11011e-05
 Reference value :  2.11545e-05
 Reference value :  2.12240e-05
 Reference value :  2.13406e-05
 Reference value :  2.14901e-05
 Reference value :  2.17483e-05
 Reference value :  2.20000e-05
 Reference value :  2.20000e-05
 Reference value :  2.20001e-05
 Reference value :  2.20004e-05
 Reference value :  2.20005e-05
 Reference value :  2.20005e-05
 Reference value :  2.20005e-05
 Reference value :  2.20006e-05
 Reference value :  2.20007e-05
 Reference value :  2.20009e-05
 Reference value :  2.20012e-05
 Reference value :  2.20020e-05
 Reference value :  2.20034e-05
 Reference value :  2.20064e-05
 Reference value :  2.20101e-05
 Reference value :  2.20150e-05
 Reference value :  2.20246e-05
 Reference value :  2.20346e-05
 Reference value :  2.20496e-05
 Reference value :  2.20655e-05
 Reference value :  2.20973e-05
 Reference value :  2.21610e-05
 Reference value :  2.22859e-05
 Reference value :  2.24566e-05
 Reference value :  2.27649e-05
 Reference value :  2.30005e-05
 Reference value :  2.30005e-05
 Reference value :  2.30006e-05
 Reference value :  2.30008e-05
 Reference value :  2.30010e-05
 Reference value :  2.30010e-05
 Reference value :  2.30011e-05
 Reference value :  2.30012e-05
 Reference value :  2.30014e-05
 Reference value :  2.30017e-05
 Reference value :  2.30021e-05
 Reference value :  2.30026e-05
 Reference value :  2.30037e-05
 Reference value :  2.30060e-05
 Reference value :  2.30104e-05
 Reference value :  2.30192e-05
 Reference value :  2.30369e-05
 Reference value :  2.30651e-05
 Reference value :  2.31011e-05
 Reference value :  2.31545e-05
 Reference value :  2.32240e-05
 Reference value :  2.33406e-05
 Reference value :  2.34901e-05
 Reference value :  2.37483e-05
 Reference value :  2.40000e-05
 Reference value :  2.40001e-05
 Reference value :  2.40002e-05
 Reference value :  2.40004e-05
 Reference value :  2.40005e-05
 Reference value :  2.40005e-05
 Reference value :  2.40005e-05
 Reference value :  2.40006e-05
 Reference value :  2.40007e-05
 Reference value :  2.40009e-05
 Reference value :  2.40012e-05
 Reference value :  2.40020e-05
 Reference value :  2.40034e-05
 Reference value :  2.40064e-05
 Reference value :  2.40101e-05
 Reference value :  2.40150e-05
 Reference value :  2.40246e-05
 Reference value :  2.40346e-05
 Reference value :  2.40496e-05
 Reference value :  2.40655e-05
 Reference value :  2.40973e-05
 Reference value :  2.41610e-05
 Reference value :  2.42859e-05
 Reference value :  2.44566e-05
 Reference value :  2.47648e-05
 Reference value :  2.50005e-05
 Reference value :  2.50005e-05
 Reference value :  2.50006e-05
 Reference value :  2.50008e-05
 Reference value :  2.50010e-05
 Reference value :  2.50010e-05
 Reference value :  2.50011e-05
 Reference value :  2.50012e-05
 Reference value :  2.50014e-05
 Reference value :  2.50017e-05
 Reference value :  2.50021e-05
 Reference value :  2.50026e-05
 Reference value :  2.50037e-05
 Reference value :  2.50060e-05
 Reference value :  2.50104e-05
 Reference value :  2.50192e-05
 Reference value :  2.50369e-05
 Reference value :  2.50651e-05
 Reference value :  2.51011e-05
 Reference value :  2.51545e-05
 Reference value :  2.52240e-05
 Reference value :  2.53406e-05
 Reference value :  2.54901e-05
 Reference value :  2.57483e-05
 Reference value :  2.60000e-05
 Reference value :  2.60001e-05
 Reference value :  2.60002e-05
 Reference value :  2.60004e-05
 Reference value :  2.60005e-05
 Reference value :  2.60005e-05
 Reference value :  2.60005e-05
 Reference value :  2.60006e-05
 Reference value :  2.60007e-05
 Reference value :  2.60009e-05
 Reference value :  2.60012e-05
 Reference value :  2.60020e-05
 Reference value :  2.60034e-05
 Reference value :  2.60064e-05
 Reference value :  2.60101e-05
 Reference value :  2.60150e-05
 Reference value :  2.60246e-05
 Reference value :  2.60346e-05
 Reference value :  2.60496e-05
 Reference value :  2.60655e-05
 Reference value :  2.60973e-05
 Reference value :  2.61610e-05
 Reference value :  2.62859e-05
 Reference value :  2.64566e-05
 Reference value :  2.67648e-05
 Reference value :  2.70005e-05
 Reference value :  2.70006e-05
 Reference value :  2.70007e-05
 Reference value :  2.70009e-05
 Reference value :  2.70010e-05
 Reference value :  2.70010e-05
 Reference value :  2.70011e-05
 Reference value :  2.70012e-05
 Reference value :  2.70014e-05
 Reference value :  2.70017e-05
 Reference value :  2.70021e-05
 Reference value :  2.70026e-05
 Reference value :  2.70037e-05
 Reference value :  2.70060e-05
 Reference value :  2.70104e-05
 Reference value :  2.70192e-05
 Reference value :  2.70369e-05
 Reference value :  2.70651e-05
 Reference value :  2.71011e-05
 Reference value :  2.71545e-05
 Reference value :  2.72240e-05
 Reference value :  2.73406e-05
 Reference value :  2.74901e-05
 Reference value :  2.77483e-05
 Reference value :  2.80000e-05
 Reference value :  2.80000e-05
 Reference value :  2.80001e-05
 Reference value :  2.80004e-05
 Reference value :  2.80005e-05
 Reference value :  2.80005e-05
 Reference value :  2.80005e-05
 Reference value :  2.80006e-05
 Reference value :  2.80007e-05
 Reference value :  2.80009e-05
 Reference value :  2.80012e-05
 Reference value :  2.80020e-05
 Reference value :  2.80034e-05
 Reference value :  2.80064e-05
 Reference value :  2.80101e-05
 Reference value :  2.80150e-05
 Reference value :  2.80246e-05
 Reference value :  2.80346e-05
 Reference value :  2.80496e-05
 Reference value :  2.80655e-05
 Reference value :  2.80973e-05
 Reference value :  2.81610e-05
 Reference value :  2.82859e-05
 Reference value :  2.84566e-05
 Reference value :  2.87648e-05
 Reference value :  2.90005e-05
 Reference value :  2.90006e-05
 Reference value :  2.90007e-05
 Reference value :  2.90009e-05
 Reference value :  2.90010e-05
 Reference value :  2.90010e-05
 Reference value :  2.90011e-05
 Reference value :  2.90012e-05
 Reference value :  2.90014e-05
 Reference value :  2.90017e-05
 Reference value :  2.90021e-05
 Reference value :  2.90026e-05
 Reference value :  2.90037e-05
 Reference value :  2.90060e-05
 Reference value :  2.90104e-05
 Reference value :  2.90192e-05
 Reference value :  2.90369e-05
 Reference value :  2.90651e-05
 Reference value :  2.91011e-05
 Reference value :  2.91545e-05
 Reference value :  2.92240e-05
 Reference value :  2.93406e-05
 Reference value :  2.94901e-05
 Reference value :  2.97483e-05
 Reference value :  3.00000e-05
 Reference value :  3.00001e-05
 Reference value :  3.00002e-05
 Reference value :  3.00004e-05
 Reference value :  3.00005e-05
 Reference value :  3.00005e-05
 Reference value :  3.00005e-05
 Reference value :  3.00006e-05
 Reference value :  3.00007e-05
 Reference value :  3.00009e-05
 Reference value :  3.00012e-05
 Reference value :  3.00020e-05
 Reference value :  3.00034e-05
 Reference value :  3.00064e-05
 Reference value :  3.00101e-05
 Reference value :  3.00150e-05
 Reference value :  3.00246e-05
 Reference value :  3.00346e-05
 Reference value :  3.00496e-05
 Reference value :  3.00655e-05
 Reference value :  3.00973e-05
 Reference value :  3.01610e-05
 Reference value :  3.02859e-05
 Reference value :  3.04566e-05
 Reference value :  3.07648e-05
 Reference value :  3.10005e-05
 Reference value :  3.10005e-05
 Reference value :  3.10006e-05
 Reference value :  3.10008e-05
 Reference value :  3.10010e-05
 Reference value :  3.10010e-05
 Reference value :  3.10011e-05
 Reference value :  3.10012e-05
 Reference value :  3.10014e-05
 Reference value :  3.10017e-05
 Reference value :  3.10021e-05
 Reference value :  3.10026e-05
 Reference value :  3.10037e-05
 Reference value :  3.10060e-05
 Reference value :  3.10104e-05
 Reference value :  3.10192e-05
 Reference value :  3.10369e-05
 Reference value :  3.10651e-05
 Reference value :  3.11011e-05
 Reference value :  3.11545e-05
 Reference value :  3.12240e-05
 Reference value :  3.13406e-05
 Reference value :  3.14901e-05
 Reference value :  3.17483e-05
 Reference value :  3.20000e-05
 Reference value :  3.20000e-05
 Reference value :  3.20001e-05
 Reference value :  3.20003e-05
 Reference value :  3.20005e-05
 Reference value :  3.20005e-05
 Reference value :  3.20005e-05
 Reference value :  3.20006e-05
 Reference value :  3.20007e-05
 Reference value :  3.20009e-05
 Reference value :  3.20012e-05
 Reference value :  3.20020e-05
 Reference value :  3.20034e-05
 Reference value :  3.20064e-05
 Reference value :  3.20101e-05
 Reference value :  3.20150e-05
 Reference value :  3.20246e-05
 Reference value :  3.20346e-05
 Reference value :  3.20496e-05
 Reference value :  3.20655e-05
 Reference value :  3.20973e-05
 Reference value :  3.21610e-05
 Reference value :  3.22859e-05
 Reference value :  3.24566e-05
 Reference value :  3.27647e-05
 Reference value :  3.30005e-05
 Reference value :  3.30006e-05
 Reference value :  3.30007e-05
 Reference value :  3.30009e-05
 Reference value :  3.30010e-05
 Reference value :  3.30010e-05
 Reference value :  3.30011e-05
 Reference value :  3.30012e-05
 Reference value :  3.30014e-05
 Reference value :  3.30017e-05
 Reference value :  3.30021e-05
 Reference value :  3.30026e-05
 Reference value :  3.30037e-05
 Reference value :  3.30060e-05
 Reference value :  3.30104e-05
 Reference value :  3.30192e-05
 Reference value :  3.30369e-05
 Reference value :  3.30651e-05
 Reference value :  3.31011e-05
 Reference value :  3.31545e-05
 Reference value :  3.32240e-05
 Reference value :  3.33406e-05
 Reference value :  3.34901e-05
 Reference value :  3.37483e-05
 Reference value :  3.40000e-05
No. of Data Rows : 919
ngspice-44 done
