
Note: Compatibility modes selected: hs a


Circuit: ** sch_path: /home/madra/cace/sar-adc-using-sky130-pdk/runs/run_2025-09-03_20-52-18/parameters/dnl/run_0/sar_output_dnl.sch

option SCALE: Scale is set to 1e-06 for instance and model parameters
option SCALE: Scale is set to 1e-06 for instance and model parameters
option SCALE: Scale is set to 1e-06 for instance and model parameters
option SCALE: Scale is set to 1e-06 for instance and model parameters
Doing analysis at TEMP = 27.000000 and TNOM = 27.000000

Using KLU as Direct Linear Solver
Operating point simulation skipped by 'uic',
  now using transient initial conditions.
 Reference value :  1.00000e-12
 Reference value :  1.02387e-12
 Reference value :  1.07160e-12
 Reference value :  1.14213e-12
 Reference value :  1.22026e-12
 Reference value :  1.35927e-12
 Reference value :  1.57508e-12
 Reference value :  1.90715e-12
 Reference value :  2.54100e-12
 Reference value :  3.47554e-12
 Reference value :  4.89851e-12
 Reference value :  6.43048e-12
 Reference value :  8.78269e-12
 Reference value :  1.27961e-11
 Reference value :  1.81633e-11
 Reference value :  2.51142e-11
 Reference value :  3.40627e-11
 Reference value :  4.41288e-11
 Reference value :  5.97386e-11
 Reference value :  7.73815e-11
 Reference value :  1.00000e-10
 Reference value :  1.00442e-10
 Reference value :  1.01327e-10
 Reference value :  1.03095e-10
 Reference value :  1.06607e-10
 Reference value :  1.13631e-10
 Reference value :  1.27679e-10
 Reference value :  1.55773e-10
 Reference value :  1.93268e-10
 Reference value :  2.42703e-10
 Reference value :  3.12493e-10
 Reference value :  4.44982e-10
 Reference value :  6.75252e-10
 Reference value :  9.75586e-10
 Reference value :  1.39940e-09
 Reference value :  1.93406e-09
 Reference value :  2.67913e-09
 Reference value :  3.58552e-09
 Reference value :  4.54643e-09
 Reference value :  5.32055e-09
 Reference value :  6.20696e-09
 Reference value :  7.03443e-09
 Reference value :  7.91442e-09
 Reference value :  8.94788e-09
 Reference value :  1.00405e-08
 Reference value :  1.11910e-08
 Reference value :  1.25498e-08
 Reference value :  1.39347e-08
 Reference value :  1.52246e-08
 Reference value :  1.66001e-08
 Reference value :  1.78470e-08
 Reference value :  1.91844e-08
 Reference value :  2.07700e-08
 Reference value :  2.24467e-08
 Reference value :  2.35535e-08
 Reference value :  2.50995e-08
 Reference value :  2.67363e-08
 Reference value :  2.94262e-08
 Reference value :  3.22487e-08
 Reference value :  3.66109e-08
 Reference value :  4.24201e-08
 Reference value :  5.40385e-08
 Reference value :  7.56707e-08
 Reference value :  1.04874e-07
 Reference value :  1.48633e-07
 Reference value :  2.29014e-07
 Reference value :  2.50100e-07
 Reference value :  2.50110e-07
 Reference value :  2.50130e-07
 Reference value :  2.50170e-07
 Reference value :  2.50200e-07
 Reference value :  2.50201e-07
 Reference value :  2.50202e-07
 Reference value :  2.50204e-07
 Reference value :  2.50208e-07
 Reference value :  2.50216e-07
 Reference value :  2.50232e-07
 Reference value :  2.50265e-07
 Reference value :  2.50331e-07
 Reference value :  2.50414e-07
 Reference value :  2.50579e-07
 Reference value :  2.50745e-07
 Reference value :  2.51077e-07
 Reference value :  2.51464e-07
 Reference value :  2.52139e-07
 Reference value :  2.52794e-07
 Reference value :  2.53525e-07
 Reference value :  2.54494e-07
 Reference value :  2.55497e-07
 Reference value :  2.56523e-07
 Reference value :  2.57712e-07
 Reference value :  2.58782e-07
 Reference value :  2.60121e-07
 Reference value :  2.61344e-07
 Reference value :  2.63001e-07
 Reference value :  2.65887e-07
 Reference value :  2.69835e-07
 Reference value :  2.77626e-07
 Reference value :  2.91266e-07
 Reference value :  3.14998e-07
 Reference value :  3.59687e-07
 Reference value :  4.37638e-07
 Reference value :  5.00000e-07
 Reference value :  5.00010e-07
 Reference value :  5.00030e-07
 Reference value :  5.00070e-07
 Reference value :  5.00100e-07
 Reference value :  5.00101e-07
 Reference value :  5.00102e-07
 Reference value :  5.00104e-07
 Reference value :  5.00108e-07
 Reference value :  5.00116e-07
 Reference value :  5.00133e-07
 Reference value :  5.00166e-07
 Reference value :  5.00232e-07
 Reference value :  5.00364e-07
 Reference value :  5.00562e-07
 Reference value :  5.00958e-07
 Reference value :  5.01468e-07
 Reference value :  5.02005e-07
 Reference value :  5.02765e-07
 Reference value :  5.03572e-07
 Reference value :  5.04320e-07
 Reference value :  5.05131e-07
 Reference value :  5.06130e-07
 Reference value :  5.07172e-07
 Reference value :  5.08392e-07
 Reference value :  5.09756e-07
 Reference value :  5.11601e-07
 Reference value :  5.13517e-07
 Reference value :  5.15468e-07
 Reference value :  5.17394e-07
 Reference value :  5.19740e-07
 Reference value :  5.23779e-07
 Reference value :  5.26844e-07
 Reference value :  5.30508e-07
 Reference value :  5.34274e-07
 Reference value :  5.38199e-07
 Reference value :  5.44478e-07
 Reference value :  5.50230e-07
 Reference value :  5.60113e-07
 Reference value :  5.73009e-07
 Reference value :  5.98800e-07
 Reference value :  6.49214e-07
 Reference value :  7.34116e-07
 Reference value :  7.50100e-07
 Reference value :  7.50110e-07
 Reference value :  7.50130e-07
 Reference value :  7.50170e-07
 Reference value :  7.50200e-07
 Reference value :  7.50201e-07
 Reference value :  7.50202e-07
 Reference value :  7.50204e-07
 Reference value :  7.50208e-07
 Reference value :  7.50216e-07
 Reference value :  7.50233e-07
 Reference value :  7.50266e-07
 Reference value :  7.50333e-07
 Reference value :  7.50467e-07
 Reference value :  7.50644e-07
 Reference value :  7.50914e-07
 Reference value :  7.51453e-07
 Reference value :  7.52099e-07
 Reference value :  7.52800e-07
 Reference value :  7.53529e-07
 Reference value :  7.54426e-07
 Reference value :  7.55524e-07
 Reference value :  7.56676e-07
 Reference value :  7.57702e-07
 Reference value :  7.58796e-07
 Reference value :  7.59790e-07
 Reference value :  7.60838e-07
 Reference value :  7.62071e-07
 Reference value :  7.63367e-07
 Reference value :  7.64935e-07
 Reference value :  7.66859e-07
 Reference value :  7.69489e-07
 Reference value :  7.72562e-07
 Reference value :  7.77449e-07
 Reference value :  7.87223e-07
 Reference value :  8.04385e-07
 Reference value :  8.36277e-07
 Reference value :  8.96005e-07
 Reference value :  1.00000e-06
 Reference value :  1.00001e-06
 Reference value :  1.00003e-06
 Reference value :  1.00007e-06
 Reference value :  1.00010e-06
 Reference value :  1.00010e-06
 Reference value :  1.00010e-06
 Reference value :  1.00010e-06
 Reference value :  1.00011e-06
 Reference value :  1.00012e-06
 Reference value :  1.00013e-06
 Reference value :  1.00017e-06
 Reference value :  1.00023e-06
 Reference value :  1.00036e-06
 Reference value :  1.00056e-06
 Reference value :  1.00096e-06
 Reference value :  1.00147e-06
 Reference value :  1.00201e-06
 Reference value :  1.00276e-06
 Reference value :  1.00346e-06
 Reference value :  1.00420e-06
 Reference value :  1.00499e-06
 Reference value :  1.00587e-06
 Reference value :  1.00691e-06
 Reference value :  1.00768e-06
 Reference value :  1.00855e-06
 Reference value :  1.00939e-06
 Reference value :  1.01026e-06
 Reference value :  1.01144e-06
 Reference value :  1.01269e-06
 Reference value :  1.01520e-06
 Reference value :  1.01755e-06
 Reference value :  1.01942e-06
 Reference value :  1.02149e-06
 Reference value :  1.02430e-06
 Reference value :  1.02655e-06
 Reference value :  1.02857e-06
 Reference value :  1.03009e-06
 Reference value :  1.03149e-06
 Reference value :  1.03302e-06
 Reference value :  1.03459e-06
 Reference value :  1.03636e-06
 Reference value :  1.03917e-06
 Reference value :  1.04208e-06
 Reference value :  1.04790e-06
 Reference value :  1.05662e-06
 Reference value :  1.07107e-06
 Reference value :  1.09838e-06
 Reference value :  1.14369e-06
 Reference value :  1.22250e-06
 Reference value :  1.25010e-06
 Reference value :  1.25011e-06
 Reference value :  1.25013e-06
 Reference value :  1.25017e-06
 Reference value :  1.25020e-06
 Reference value :  1.25020e-06
 Reference value :  1.25020e-06
 Reference value :  1.25020e-06
 Reference value :  1.25021e-06
 Reference value :  1.25022e-06
 Reference value :  1.25023e-06
 Reference value :  1.25027e-06
 Reference value :  1.25033e-06
 Reference value :  1.25047e-06
 Reference value :  1.25064e-06
 Reference value :  1.25091e-06
 Reference value :  1.25145e-06
 Reference value :  1.25210e-06
 Reference value :  1.25288e-06
 Reference value :  1.25358e-06
 Reference value :  1.25455e-06
 Reference value :  1.25561e-06
 Reference value :  1.25652e-06
 Reference value :  1.25760e-06
 Reference value :  1.25871e-06
 Reference value :  1.25986e-06
 Reference value :  1.26136e-06
 Reference value :  1.26388e-06
 Reference value :  1.26734e-06
 Reference value :  1.27243e-06
 Reference value :  1.28263e-06
 Reference value :  1.29879e-06
 Reference value :  1.33070e-06
 Reference value :  1.39450e-06
 Reference value :  1.50000e-06
 Reference value :  1.50001e-06
 Reference value :  1.50003e-06
 Reference value :  1.50007e-06
 Reference value :  1.50010e-06
 Reference value :  1.50010e-06
 Reference value :  1.50010e-06
 Reference value :  1.50010e-06
 Reference value :  1.50011e-06
 Reference value :  1.50012e-06
 Reference value :  1.50013e-06
 Reference value :  1.50017e-06
 Reference value :  1.50023e-06
 Reference value :  1.50036e-06
 Reference value :  1.50056e-06
 Reference value :  1.50095e-06
 Reference value :  1.50146e-06
 Reference value :  1.50200e-06
 Reference value :  1.50275e-06
 Reference value :  1.50344e-06
 Reference value :  1.50417e-06
 Reference value :  1.50501e-06
 Reference value :  1.50593e-06
 Reference value :  1.50690e-06
 Reference value :  1.50791e-06
 Reference value :  1.50963e-06
 Reference value :  1.51119e-06
 Reference value :  1.51316e-06
 Reference value :  1.51475e-06
 Reference value :  1.51645e-06
 Reference value :  1.51871e-06
 Reference value :  1.52104e-06
 Reference value :  1.52494e-06
 Reference value :  1.53011e-06
 Reference value :  1.53821e-06
 Reference value :  1.55111e-06
 Reference value :  1.57404e-06
 Reference value :  1.61741e-06
 Reference value :  1.69497e-06
 Reference value :  1.75010e-06
 Reference value :  1.75011e-06
 Reference value :  1.75013e-06
 Reference value :  1.75017e-06
 Reference value :  1.75020e-06
 Reference value :  1.75020e-06
 Reference value :  1.75020e-06
 Reference value :  1.75020e-06
 Reference value :  1.75021e-06
 Reference value :  1.75022e-06
 Reference value :  1.75023e-06
 Reference value :  1.75027e-06
 Reference value :  1.75033e-06
 Reference value :  1.75047e-06
 Reference value :  1.75064e-06
 Reference value :  1.75091e-06
 Reference value :  1.75145e-06
 Reference value :  1.75210e-06
 Reference value :  1.75288e-06
 Reference value :  1.75358e-06
 Reference value :  1.75454e-06
 Reference value :  1.75561e-06
 Reference value :  1.75653e-06
 Reference value :  1.75762e-06
 Reference value :  1.75853e-06
 Reference value :  1.75951e-06
 Reference value :  1.76064e-06
 Reference value :  1.76188e-06
 Reference value :  1.76337e-06
 Reference value :  1.76496e-06
 Reference value :  1.76739e-06
 Reference value :  1.77000e-06
 Reference value :  1.77435e-06
 Reference value :  1.78304e-06
 Reference value :  1.79603e-06
 Reference value :  1.82144e-06
 Reference value :  1.86422e-06
 Reference value :  1.93984e-06
 Reference value :  2.00000e-06
 Reference value :  2.00001e-06
 Reference value :  2.00003e-06
 Reference value :  2.00007e-06
 Reference value :  2.00010e-06
 Reference value :  2.00010e-06
 Reference value :  2.00010e-06
 Reference value :  2.00010e-06
 Reference value :  2.00011e-06
 Reference value :  2.00012e-06
 Reference value :  2.00013e-06
 Reference value :  2.00017e-06
 Reference value :  2.00023e-06
 Reference value :  2.00036e-06
 Reference value :  2.00056e-06
 Reference value :  2.00095e-06
 Reference value :  2.00146e-06
 Reference value :  2.00200e-06
 Reference value :  2.00275e-06
 Reference value :  2.00345e-06
 Reference value :  2.00418e-06
 Reference value :  2.00498e-06
 Reference value :  2.00586e-06
 Reference value :  2.00661e-06
 Reference value :  2.00746e-06
 Reference value :  2.00819e-06
 Reference value :  2.00904e-06
 Reference value :  2.01011e-06
 Reference value :  2.01122e-06
 Reference value :  2.01323e-06
 Reference value :  2.01537e-06
 Reference value :  2.01761e-06
 Reference value :  2.01983e-06
 Reference value :  2.02193e-06
 Reference value :  2.02420e-06
 Reference value :  2.02602e-06
 Reference value :  2.02745e-06
 Reference value :  2.02898e-06
 Reference value :  2.03072e-06
 Reference value :  2.03260e-06
 Reference value :  2.03465e-06
 Reference value :  2.03766e-06
 Reference value :  2.04137e-06
 Reference value :  2.04879e-06
 Reference value :  2.05862e-06
 Reference value :  2.07639e-06
 Reference value :  2.09902e-06
 Reference value :  2.14427e-06
 Reference value :  2.21152e-06
 Reference value :  2.25010e-06
 Reference value :  2.25011e-06
 Reference value :  2.25013e-06
 Reference value :  2.25017e-06
 Reference value :  2.25020e-06
 Reference value :  2.25020e-06
 Reference value :  2.25020e-06
 Reference value :  2.25020e-06
 Reference value :  2.25021e-06
 Reference value :  2.25022e-06
 Reference value :  2.25023e-06
 Reference value :  2.25027e-06
 Reference value :  2.25033e-06
 Reference value :  2.25047e-06
 Reference value :  2.25064e-06
 Reference value :  2.25091e-06
 Reference value :  2.25145e-06
 Reference value :  2.25210e-06
 Reference value :  2.25288e-06
 Reference value :  2.25358e-06
 Reference value :  2.25454e-06
 Reference value :  2.25561e-06
 Reference value :  2.25657e-06
 Reference value :  2.25771e-06
 Reference value :  2.25878e-06
 Reference value :  2.26033e-06
 Reference value :  2.26244e-06
 Reference value :  2.26495e-06
 Reference value :  2.26889e-06
 Reference value :  2.27529e-06
 Reference value :  2.28633e-06
 Reference value :  2.30434e-06
 Reference value :  2.34036e-06
 Reference value :  2.39742e-06
 Reference value :  2.46066e-06
 Reference value :  2.50000e-06
 Reference value :  2.50001e-06
 Reference value :  2.50003e-06
 Reference value :  2.50007e-06
 Reference value :  2.50010e-06
 Reference value :  2.50010e-06
 Reference value :  2.50010e-06
 Reference value :  2.50010e-06
 Reference value :  2.50011e-06
 Reference value :  2.50012e-06
 Reference value :  2.50013e-06
 Reference value :  2.50017e-06
 Reference value :  2.50023e-06
 Reference value :  2.50036e-06
 Reference value :  2.50055e-06
 Reference value :  2.50091e-06
 Reference value :  2.50141e-06
 Reference value :  2.50194e-06
 Reference value :  2.50259e-06
 Reference value :  2.50328e-06
 Reference value :  2.50395e-06
 Reference value :  2.50471e-06
 Reference value :  2.50557e-06
 Reference value :  2.50642e-06
 Reference value :  2.50765e-06
 Reference value :  2.50889e-06
 Reference value :  2.51091e-06
 Reference value :  2.51240e-06
 Reference value :  2.51392e-06
 Reference value :  2.51550e-06
 Reference value :  2.51724e-06
 Reference value :  2.51903e-06
 Reference value :  2.52259e-06
 Reference value :  2.52726e-06
 Reference value :  2.53604e-06
 Reference value :  2.55141e-06
 Reference value :  2.57945e-06
 Reference value :  2.63553e-06
 Reference value :  2.74768e-06
 Reference value :  2.75010e-06
 Reference value :  2.75011e-06
 Reference value :  2.75013e-06
 Reference value :  2.75017e-06
 Reference value :  2.75020e-06
 Reference value :  2.75020e-06
 Reference value :  2.75020e-06
 Reference value :  2.75020e-06
 Reference value :  2.75021e-06
 Reference value :  2.75022e-06
 Reference value :  2.75023e-06
 Reference value :  2.75027e-06
 Reference value :  2.75033e-06
 Reference value :  2.75047e-06
 Reference value :  2.75064e-06
 Reference value :  2.75091e-06
 Reference value :  2.75145e-06
 Reference value :  2.75210e-06
 Reference value :  2.75287e-06
 Reference value :  2.75358e-06
 Reference value :  2.75456e-06
 Reference value :  2.75562e-06
 Reference value :  2.75658e-06
 Reference value :  2.75747e-06
 Reference value :  2.75843e-06
 Reference value :  2.75958e-06
 Reference value :  2.76082e-06
 Reference value :  2.76219e-06
 Reference value :  2.76377e-06
 Reference value :  2.76611e-06
 Reference value :  2.76872e-06
 Reference value :  2.77303e-06
 Reference value :  2.78000e-06
 Reference value :  2.79393e-06
 Reference value :  2.81838e-06
 Reference value :  2.86415e-06
 Reference value :  2.94974e-06
 Reference value :  3.00000e-06
 Reference value :  3.00001e-06
 Reference value :  3.00003e-06
 Reference value :  3.00007e-06
 Reference value :  3.00010e-06
 Reference value :  3.00010e-06
 Reference value :  3.00010e-06
 Reference value :  3.00010e-06
 Reference value :  3.00011e-06
 Reference value :  3.00012e-06
 Reference value :  3.00013e-06
 Reference value :  3.00017e-06
 Reference value :  3.00023e-06
 Reference value :  3.00036e-06
 Reference value :  3.00055e-06
 Reference value :  3.00091e-06
 Reference value :  3.00141e-06
 Reference value :  3.00194e-06
 Reference value :  3.00269e-06
 Reference value :  3.00338e-06
 Reference value :  3.00409e-06
 Reference value :  3.00486e-06
 Reference value :  3.00572e-06
 Reference value :  3.00652e-06
 Reference value :  3.00735e-06
 Reference value :  3.00811e-06
 Reference value :  3.00895e-06
 Reference value :  3.01008e-06
 Reference value :  3.01115e-06
 Reference value :  3.01303e-06
 Reference value :  3.01515e-06
 Reference value :  3.01680e-06
 Reference value :  3.01863e-06
 Reference value :  3.02048e-06
 Reference value :  3.02249e-06
 Reference value :  3.02397e-06
 Reference value :  3.02540e-06
 Reference value :  3.02673e-06
 Reference value :  3.02818e-06
 Reference value :  3.02987e-06
 Reference value :  3.03174e-06
 Reference value :  3.03449e-06
 Reference value :  3.03796e-06
 Reference value :  3.04491e-06
 Reference value :  3.05589e-06
 Reference value :  3.07259e-06
 Reference value :  3.10390e-06
 Reference value :  3.15511e-06
 Reference value :  3.21238e-06
 Reference value :  3.25010e-06
 Reference value :  3.25011e-06
 Reference value :  3.25013e-06
 Reference value :  3.25017e-06
 Reference value :  3.25020e-06
 Reference value :  3.25020e-06
 Reference value :  3.25020e-06
 Reference value :  3.25020e-06
 Reference value :  3.25021e-06
 Reference value :  3.25022e-06
 Reference value :  3.25023e-06
 Reference value :  3.25027e-06
 Reference value :  3.25033e-06
 Reference value :  3.25047e-06
 Reference value :  3.25064e-06
 Reference value :  3.25091e-06
 Reference value :  3.25145e-06
 Reference value :  3.25210e-06
 Reference value :  3.25287e-06
 Reference value :  3.25358e-06
 Reference value :  3.25455e-06
 Reference value :  3.25561e-06
 Reference value :  3.25651e-06
 Reference value :  3.25749e-06
 Reference value :  3.25848e-06
 Reference value :  3.25990e-06
 Reference value :  3.26138e-06
 Reference value :  3.26403e-06
 Reference value :  3.26738e-06
 Reference value :  3.27276e-06
 Reference value :  3.28352e-06
 Reference value :  3.29975e-06
 Reference value :  3.33220e-06
 Reference value :  3.39710e-06
 Reference value :  3.50000e-06
 Reference value :  3.50001e-06
 Reference value :  3.50003e-06
 Reference value :  3.50007e-06
 Reference value :  3.50010e-06
 Reference value :  3.50010e-06
 Reference value :  3.50010e-06
 Reference value :  3.50010e-06
 Reference value :  3.50011e-06
 Reference value :  3.50012e-06
 Reference value :  3.50013e-06
 Reference value :  3.50017e-06
 Reference value :  3.50023e-06
 Reference value :  3.50036e-06
 Reference value :  3.50055e-06
 Reference value :  3.50091e-06
 Reference value :  3.50141e-06
 Reference value :  3.50194e-06
 Reference value :  3.50269e-06
 Reference value :  3.50338e-06
 Reference value :  3.50410e-06
 Reference value :  3.50490e-06
 Reference value :  3.50579e-06
 Reference value :  3.50677e-06
 Reference value :  3.50802e-06
 Reference value :  3.50965e-06
 Reference value :  3.51115e-06
 Reference value :  3.51289e-06
 Reference value :  3.51453e-06
 Reference value :  3.51641e-06
 Reference value :  3.51820e-06
 Reference value :  3.52051e-06
 Reference value :  3.52403e-06
 Reference value :  3.52930e-06
 Reference value :  3.53843e-06
 Reference value :  3.55519e-06
 Reference value :  3.58487e-06
 Reference value :  3.64161e-06
 Reference value :  3.75010e-06
 Reference value :  3.75011e-06
 Reference value :  3.75013e-06
 Reference value :  3.75017e-06
 Reference value :  3.75020e-06
 Reference value :  3.75020e-06
 Reference value :  3.75020e-06
 Reference value :  3.75020e-06
 Reference value :  3.75021e-06
 Reference value :  3.75022e-06
 Reference value :  3.75023e-06
 Reference value :  3.75027e-06
 Reference value :  3.75033e-06
 Reference value :  3.75047e-06
 Reference value :  3.75064e-06
 Reference value :  3.75091e-06
 Reference value :  3.75145e-06
 Reference value :  3.75211e-06
 Reference value :  3.75288e-06
 Reference value :  3.75358e-06
 Reference value :  3.75455e-06
 Reference value :  3.75561e-06
 Reference value :  3.75651e-06
 Reference value :  3.75749e-06
 Reference value :  3.75842e-06
 Reference value :  3.75945e-06
 Reference value :  3.76061e-06
 Reference value :  3.76199e-06
 Reference value :  3.76345e-06
 Reference value :  3.76593e-06
 Reference value :  3.76847e-06
 Reference value :  3.77208e-06
 Reference value :  3.77721e-06
 Reference value :  3.78747e-06
 Reference value :  3.80799e-06
 Reference value :  3.84903e-06
 Reference value :  3.93112e-06
 Reference value :  4.00000e-06
 Reference value :  4.00001e-06
 Reference value :  4.00003e-06
 Reference value :  4.00007e-06
 Reference value :  4.00010e-06
 Reference value :  4.00010e-06
 Reference value :  4.00010e-06
 Reference value :  4.00010e-06
 Reference value :  4.00011e-06
 Reference value :  4.00012e-06
 Reference value :  4.00013e-06
 Reference value :  4.00017e-06
 Reference value :  4.00023e-06
 Reference value :  4.00036e-06
 Reference value :  4.00055e-06
 Reference value :  4.00091e-06
 Reference value :  4.00141e-06
 Reference value :  4.00194e-06
 Reference value :  4.00269e-06
 Reference value :  4.00337e-06
 Reference value :  4.00409e-06
 Reference value :  4.00487e-06
 Reference value :  4.00575e-06
 Reference value :  4.00648e-06
 Reference value :  4.00727e-06
 Reference value :  4.00802e-06
 Reference value :  4.00888e-06
 Reference value :  4.00970e-06
 Reference value :  4.01095e-06
 Reference value :  4.01209e-06
 Reference value :  4.01418e-06
 Reference value :  4.01639e-06
 Reference value :  4.01810e-06
 Reference value :  4.01998e-06
 Reference value :  4.02247e-06
 Reference value :  4.02454e-06
 Reference value :  4.02612e-06
 Reference value :  4.02759e-06
 Reference value :  4.02919e-06
 Reference value :  4.03083e-06
 Reference value :  4.03271e-06
 Reference value :  4.03582e-06
 Reference value :  4.03887e-06
 Reference value :  4.04497e-06
 Reference value :  4.05433e-06
 Reference value :  4.07008e-06
 Reference value :  4.09495e-06
 Reference value :  4.12450e-06
 Reference value :  4.13909e-06
 Reference value :  4.16059e-06
 Reference value :  4.18114e-06
 Reference value :  4.22224e-06
 Reference value :  4.25010e-06
 Reference value :  4.25011e-06
 Reference value :  4.25013e-06
 Reference value :  4.25017e-06
 Reference value :  4.25020e-06
 Reference value :  4.25020e-06
 Reference value :  4.25020e-06
 Reference value :  4.25020e-06
 Reference value :  4.25021e-06
 Reference value :  4.25022e-06
 Reference value :  4.25023e-06
 Reference value :  4.25027e-06
 Reference value :  4.25033e-06
 Reference value :  4.25042e-06
 Reference value :  4.25058e-06
 Reference value :  4.25077e-06
 Reference value :  4.25109e-06
 Reference value :  4.25172e-06
 Reference value :  4.25234e-06
 Reference value :  4.25304e-06
 Reference value :  4.25378e-06
 Reference value :  4.25472e-06
 Reference value :  4.25553e-06
 Reference value :  4.25646e-06
 Reference value :  4.25737e-06
 Reference value :  4.25832e-06
 Reference value :  4.25986e-06
 Reference value :  4.26142e-06
 Reference value :  4.26404e-06
 Reference value :  4.26739e-06
 Reference value :  4.27265e-06
 Reference value :  4.28317e-06
 Reference value :  4.30422e-06
 Reference value :  4.34631e-06
 Reference value :  4.43049e-06
 Reference value :  4.50000e-06
 Reference value :  4.50001e-06
 Reference value :  4.50003e-06
 Reference value :  4.50007e-06
 Reference value :  4.50010e-06
 Reference value :  4.50010e-06
 Reference value :  4.50010e-06
 Reference value :  4.50010e-06
 Reference value :  4.50011e-06
 Reference value :  4.50012e-06
 Reference value :  4.50013e-06
 Reference value :  4.50017e-06
 Reference value :  4.50023e-06
 Reference value :  4.50036e-06
 Reference value :  4.50062e-06
 Reference value :  4.50109e-06
 Reference value :  4.50174e-06
 Reference value :  4.50246e-06
 Reference value :  4.50308e-06
 Reference value :  4.50385e-06
 Reference value :  4.50481e-06
 Reference value :  4.50576e-06
 Reference value :  4.50670e-06
 Reference value :  4.50785e-06
 Reference value :  4.50928e-06
 Reference value :  4.51101e-06
 Reference value :  4.51234e-06
 Reference value :  4.51378e-06
 Reference value :  4.51521e-06
 Reference value :  4.51689e-06
 Reference value :  4.51866e-06
 Reference value :  4.52190e-06
 Reference value :  4.52661e-06
 Reference value :  4.53547e-06
 Reference value :  4.55228e-06
 Reference value :  4.58170e-06
 Reference value :  4.64054e-06
 Reference value :  4.75010e-06
 Reference value :  4.75011e-06
 Reference value :  4.75013e-06
 Reference value :  4.75017e-06
 Reference value :  4.75020e-06
 Reference value :  4.75020e-06
 Reference value :  4.75020e-06
 Reference value :  4.75020e-06
 Reference value :  4.75021e-06
 Reference value :  4.75022e-06
 Reference value :  4.75023e-06
 Reference value :  4.75027e-06
 Reference value :  4.75033e-06
 Reference value :  4.75042e-06
 Reference value :  4.75058e-06
 Reference value :  4.75077e-06
 Reference value :  4.75108e-06
 Reference value :  4.75171e-06
 Reference value :  4.75233e-06
 Reference value :  4.75303e-06
 Reference value :  4.75377e-06
 Reference value :  4.75471e-06
 Reference value :  4.75554e-06
 Reference value :  4.75647e-06
 Reference value :  4.75728e-06
 Reference value :  4.75818e-06
 Reference value :  4.75921e-06
 Reference value :  4.76036e-06
 Reference value :  4.76178e-06
 Reference value :  4.76326e-06
 Reference value :  4.76563e-06
 Reference value :  4.76814e-06
 Reference value :  4.77193e-06
 Reference value :  4.77714e-06
 Reference value :  4.78755e-06
 Reference value :  4.80838e-06
 Reference value :  4.85003e-06
 Reference value :  4.93334e-06
 Reference value :  5.00000e-06
 Reference value :  5.00001e-06
 Reference value :  5.00003e-06
 Reference value :  5.00007e-06
 Reference value :  5.00010e-06
 Reference value :  5.00010e-06
 Reference value :  5.00010e-06
 Reference value :  5.00010e-06
 Reference value :  5.00011e-06
 Reference value :  5.00012e-06
 Reference value :  5.00013e-06
 Reference value :  5.00017e-06
 Reference value :  5.00023e-06
 Reference value :  5.00036e-06
 Reference value :  5.00062e-06
 Reference value :  5.00109e-06
 Reference value :  5.00174e-06
 Reference value :  5.00246e-06
 Reference value :  5.00309e-06
 Reference value :  5.00386e-06
 Reference value :  5.00471e-06
 Reference value :  5.00560e-06
 Reference value :  5.00637e-06
 Reference value :  5.00718e-06
 Reference value :  5.00789e-06
 Reference value :  5.00869e-06
 Reference value :  5.00966e-06
 Reference value :  5.01075e-06
 Reference value :  5.01294e-06
 Reference value :  5.01511e-06
 Reference value :  5.01737e-06
 Reference value :  5.01946e-06
 Reference value :  5.02135e-06
 Reference value :  5.02340e-06
 Reference value :  5.02547e-06
 Reference value :  5.02717e-06
 Reference value :  5.02885e-06
 Reference value :  5.03038e-06
 Reference value :  5.03200e-06
 Reference value :  5.03388e-06
 Reference value :  5.03614e-06
 Reference value :  5.03905e-06
 Reference value :  5.04314e-06
 Reference value :  5.04956e-06
 Reference value :  5.05828e-06
 Reference value :  5.06747e-06
 Reference value :  5.07724e-06
 Reference value :  5.08622e-06
 Reference value :  5.09905e-06
 Reference value :  5.11645e-06
 Reference value :  5.13721e-06
 Reference value :  5.16004e-06
 Reference value :  5.18800e-06
 Reference value :  5.24391e-06
 Reference value :  5.25010e-06
 Reference value :  5.25011e-06
 Reference value :  5.25013e-06
 Reference value :  5.25017e-06
 Reference value :  5.25020e-06
 Reference value :  5.25020e-06
 Reference value :  5.25020e-06
 Reference value :  5.25020e-06
 Reference value :  5.25021e-06
 Reference value :  5.25022e-06
 Reference value :  5.25023e-06
 Reference value :  5.25027e-06
 Reference value :  5.25033e-06
 Reference value :  5.25042e-06
 Reference value :  5.25058e-06
 Reference value :  5.25076e-06
 Reference value :  5.25108e-06
 Reference value :  5.25172e-06
 Reference value :  5.25234e-06
 Reference value :  5.25305e-06
 Reference value :  5.25379e-06
 Reference value :  5.25473e-06
 Reference value :  5.25576e-06
 Reference value :  5.25651e-06
 Reference value :  5.25740e-06
 Reference value :  5.25836e-06
 Reference value :  5.25947e-06
 Reference value :  5.26066e-06
 Reference value :  5.26304e-06
 Reference value :  5.26614e-06
 Reference value :  5.27060e-06
 Reference value :  5.27904e-06
 Reference value :  5.29593e-06
 Reference value :  5.32970e-06
 Reference value :  5.39725e-06
 Reference value :  5.50000e-06
 Reference value :  5.50001e-06
 Reference value :  5.50003e-06
 Reference value :  5.50007e-06
 Reference value :  5.50010e-06
 Reference value :  5.50010e-06
 Reference value :  5.50010e-06
 Reference value :  5.50010e-06
 Reference value :  5.50011e-06
 Reference value :  5.50012e-06
 Reference value :  5.50013e-06
 Reference value :  5.50017e-06
 Reference value :  5.50023e-06
 Reference value :  5.50036e-06
 Reference value :  5.50059e-06
 Reference value :  5.50104e-06
 Reference value :  5.50167e-06
 Reference value :  5.50243e-06
 Reference value :  5.50310e-06
 Reference value :  5.50387e-06
 Reference value :  5.50480e-06
 Reference value :  5.50578e-06
 Reference value :  5.50670e-06
 Reference value :  5.50780e-06
 Reference value :  5.50924e-06
 Reference value :  5.51080e-06
 Reference value :  5.51230e-06
 Reference value :  5.51365e-06
 Reference value :  5.51515e-06
 Reference value :  5.51684e-06
 Reference value :  5.51859e-06
 Reference value :  5.52208e-06
 Reference value :  5.52698e-06
 Reference value :  5.53667e-06
 Reference value :  5.55431e-06
 Reference value :  5.58595e-06
 Reference value :  5.64806e-06
 Reference value :  5.75010e-06
 Reference value :  5.75011e-06
 Reference value :  5.75013e-06
 Reference value :  5.75017e-06
 Reference value :  5.75020e-06
 Reference value :  5.75020e-06
 Reference value :  5.75020e-06
 Reference value :  5.75020e-06
 Reference value :  5.75021e-06
 Reference value :  5.75022e-06
 Reference value :  5.75023e-06
 Reference value :  5.75027e-06
 Reference value :  5.75033e-06
 Reference value :  5.75041e-06
 Reference value :  5.75058e-06
 Reference value :  5.75077e-06
 Reference value :  5.75108e-06
 Reference value :  5.75170e-06
 Reference value :  5.75233e-06
 Reference value :  5.75303e-06
 Reference value :  5.75376e-06
 Reference value :  5.75470e-06
 Reference value :  5.75573e-06
 Reference value :  5.75649e-06
 Reference value :  5.75736e-06
 Reference value :  5.75836e-06
 Reference value :  5.75928e-06
 Reference value :  5.76039e-06
 Reference value :  5.76161e-06
 Reference value :  5.76313e-06
 Reference value :  5.76470e-06
 Reference value :  5.76691e-06
 Reference value :  5.76940e-06
 Reference value :  5.77363e-06
 Reference value :  5.78168e-06
 Reference value :  5.79397e-06
 Reference value :  5.81740e-06
 Reference value :  5.85664e-06
 Reference value :  5.92562e-06
 Reference value :  6.00000e-06
 Reference value :  6.00001e-06
 Reference value :  6.00003e-06
 Reference value :  6.00007e-06
 Reference value :  6.00010e-06
 Reference value :  6.00010e-06
 Reference value :  6.00010e-06
 Reference value :  6.00010e-06
 Reference value :  6.00011e-06
 Reference value :  6.00012e-06
 Reference value :  6.00013e-06
 Reference value :  6.00017e-06
 Reference value :  6.00023e-06
 Reference value :  6.00036e-06
 Reference value :  6.00059e-06
 Reference value :  6.00104e-06
 Reference value :  6.00166e-06
 Reference value :  6.00243e-06
 Reference value :  6.00310e-06
 Reference value :  6.00387e-06
 Reference value :  6.00482e-06
 Reference value :  6.00573e-06
 Reference value :  6.00667e-06
 Reference value :  6.00762e-06
 Reference value :  6.00855e-06
 Reference value :  6.00955e-06
 Reference value :  6.01077e-06
 Reference value :  6.01198e-06
 Reference value :  6.01439e-06
 Reference value :  6.01701e-06
 Reference value :  6.01902e-06
 Reference value :  6.02114e-06
 Reference value :  6.02313e-06
 Reference value :  6.02580e-06
 Reference value :  6.02786e-06
 Reference value :  6.02944e-06
 Reference value :  6.03101e-06
 Reference value :  6.03290e-06
 Reference value :  6.03480e-06
 Reference value :  6.03698e-06
 Reference value :  6.04001e-06
 Reference value :  6.04413e-06
 Reference value :  6.04915e-06
 Reference value :  6.05467e-06
 Reference value :  6.06171e-06
 Reference value :  6.07148e-06
 Reference value :  6.08867e-06
 Reference value :  6.11886e-06
 Reference value :  6.16681e-06
 Reference value :  6.21643e-06
 Reference value :  6.25010e-06
 Reference value :  6.25011e-06
 Reference value :  6.25013e-06
 Reference value :  6.25017e-06
 Reference value :  6.25020e-06
 Reference value :  6.25020e-06
 Reference value :  6.25020e-06
 Reference value :  6.25020e-06
 Reference value :  6.25021e-06
 Reference value :  6.25022e-06
 Reference value :  6.25023e-06
 Reference value :  6.25027e-06
 Reference value :  6.25033e-06
 Reference value :  6.25041e-06
 Reference value :  6.25058e-06
 Reference value :  6.25076e-06
 Reference value :  6.25106e-06
 Reference value :  6.25166e-06
 Reference value :  6.25229e-06
 Reference value :  6.25299e-06
 Reference value :  6.25371e-06
 Reference value :  6.25464e-06
 Reference value :  6.25566e-06
 Reference value :  6.25692e-06
 Reference value :  6.25796e-06
 Reference value :  6.25906e-06
 Reference value :  6.26024e-06
 Reference value :  6.26206e-06
 Reference value :  6.26390e-06
 Reference value :  6.26746e-06
 Reference value :  6.27268e-06
 Reference value :  6.28173e-06
 Reference value :  6.29873e-06
 Reference value :  6.32776e-06
 Reference value :  6.38583e-06
 Reference value :  6.50000e-06
 Reference value :  6.50001e-06
 Reference value :  6.50003e-06
 Reference value :  6.50007e-06
 Reference value :  6.50010e-06
 Reference value :  6.50010e-06
 Reference value :  6.50010e-06
 Reference value :  6.50010e-06
 Reference value :  6.50011e-06
 Reference value :  6.50012e-06
 Reference value :  6.50013e-06
 Reference value :  6.50017e-06
 Reference value :  6.50023e-06
 Reference value :  6.50034e-06
 Reference value :  6.50051e-06
 Reference value :  6.50087e-06
 Reference value :  6.50148e-06
 Reference value :  6.50220e-06
 Reference value :  6.50296e-06
 Reference value :  6.50380e-06
 Reference value :  6.50462e-06
 Reference value :  6.50542e-06
 Reference value :  6.50632e-06
 Reference value :  6.50725e-06
 Reference value :  6.50823e-06
 Reference value :  6.50973e-06
 Reference value :  6.51126e-06
 Reference value :  6.51303e-06
 Reference value :  6.51486e-06
 Reference value :  6.51662e-06
 Reference value :  6.51883e-06
 Reference value :  6.52215e-06
 Reference value :  6.52608e-06
 Reference value :  6.53344e-06
 Reference value :  6.54430e-06
 Reference value :  6.56222e-06
 Reference value :  6.59272e-06
 Reference value :  6.64161e-06
 Reference value :  6.72569e-06
 Reference value :  6.75010e-06
 Reference value :  6.75011e-06
 Reference value :  6.75013e-06
 Reference value :  6.75017e-06
 Reference value :  6.75020e-06
 Reference value :  6.75020e-06
 Reference value :  6.75020e-06
 Reference value :  6.75020e-06
 Reference value :  6.75021e-06
 Reference value :  6.75022e-06
 Reference value :  6.75023e-06
 Reference value :  6.75027e-06
 Reference value :  6.75033e-06
 Reference value :  6.75041e-06
 Reference value :  6.75058e-06
 Reference value :  6.75080e-06
 Reference value :  6.75107e-06
 Reference value :  6.75163e-06
 Reference value :  6.75225e-06
 Reference value :  6.75292e-06
 Reference value :  6.75364e-06
 Reference value :  6.75457e-06
 Reference value :  6.75558e-06
 Reference value :  6.75681e-06
 Reference value :  6.75777e-06
 Reference value :  6.75881e-06
 Reference value :  6.75984e-06
 Reference value :  6.76095e-06
 Reference value :  6.76217e-06
 Reference value :  6.76348e-06
 Reference value :  6.76498e-06
 Reference value :  6.76746e-06
 Reference value :  6.77013e-06
 Reference value :  6.77422e-06
 Reference value :  6.78053e-06
 Reference value :  6.79315e-06
 Reference value :  6.81803e-06
 Reference value :  6.86320e-06
 Reference value :  6.95355e-06
 Reference value :  7.00000e-06
 Reference value :  7.00001e-06
 Reference value :  7.00003e-06
 Reference value :  7.00007e-06
 Reference value :  7.00010e-06
 Reference value :  7.00010e-06
 Reference value :  7.00010e-06
 Reference value :  7.00010e-06
 Reference value :  7.00011e-06
 Reference value :  7.00012e-06
 Reference value :  7.00013e-06
 Reference value :  7.00017e-06
 Reference value :  7.00023e-06
 Reference value :  7.00034e-06
 Reference value :  7.00051e-06
 Reference value :  7.00087e-06
 Reference value :  7.00149e-06
 Reference value :  7.00220e-06
 Reference value :  7.00296e-06
 Reference value :  7.00380e-06
 Reference value :  7.00462e-06
 Reference value :  7.00542e-06
 Reference value :  7.00630e-06
 Reference value :  7.00709e-06
 Reference value :  7.00785e-06
 Reference value :  7.00864e-06
 Reference value :  7.00959e-06
 Reference value :  7.01066e-06
 Reference value :  7.01190e-06
 Reference value :  7.01401e-06
 Reference value :  7.01650e-06
 Reference value :  7.01843e-06
 Reference value :  7.02049e-06
 Reference value :  7.02279e-06
 Reference value :  7.02499e-06
 Reference value :  7.02743e-06
 Reference value :  7.02916e-06
 Reference value :  7.03079e-06
 Reference value :  7.03274e-06
 Reference value :  7.03453e-06
 Reference value :  7.03685e-06
 Reference value :  7.03981e-06
 Reference value :  7.04311e-06
 Reference value :  7.04875e-06
 Reference value :  7.05791e-06
 Reference value :  7.07032e-06
 Reference value :  7.09218e-06
 Reference value :  7.12665e-06
 Reference value :  7.19561e-06
 Reference value :  7.25010e-06
 Reference value :  7.25011e-06
 Reference value :  7.25013e-06
 Reference value :  7.25017e-06
 Reference value :  7.25020e-06
 Reference value :  7.25020e-06
 Reference value :  7.25020e-06
 Reference value :  7.25020e-06
 Reference value :  7.25021e-06
 Reference value :  7.25022e-06
 Reference value :  7.25023e-06
 Reference value :  7.25027e-06
 Reference value :  7.25033e-06
 Reference value :  7.25042e-06
 Reference value :  7.25057e-06
 Reference value :  7.25076e-06
 Reference value :  7.25104e-06
 Reference value :  7.25162e-06
 Reference value :  7.25226e-06
 Reference value :  7.25295e-06
 Reference value :  7.25367e-06
 Reference value :  7.25459e-06
 Reference value :  7.25561e-06
 Reference value :  7.25657e-06
 Reference value :  7.25764e-06
 Reference value :  7.25873e-06
 Reference value :  7.25982e-06
 Reference value :  7.26155e-06
 Reference value :  7.26340e-06
 Reference value :  7.26688e-06
 Reference value :  7.27166e-06
 Reference value :  7.28121e-06
 Reference value :  7.29838e-06
 Reference value :  7.32974e-06
 Reference value :  7.39245e-06
 Reference value :  7.50000e-06
 Reference value :  7.50001e-06
 Reference value :  7.50003e-06
 Reference value :  7.50007e-06
 Reference value :  7.50010e-06
 Reference value :  7.50010e-06
 Reference value :  7.50010e-06
 Reference value :  7.50010e-06
 Reference value :  7.50011e-06
 Reference value :  7.50012e-06
 Reference value :  7.50013e-06
 Reference value :  7.50017e-06
 Reference value :  7.50023e-06
 Reference value :  7.50031e-06
 Reference value :  7.50047e-06
 Reference value :  7.50077e-06
 Reference value :  7.50138e-06
 Reference value :  7.50202e-06
 Reference value :  7.50274e-06
 Reference value :  7.50339e-06
 Reference value :  7.50413e-06
 Reference value :  7.50497e-06
 Reference value :  7.50588e-06
 Reference value :  7.50683e-06
 Reference value :  7.50785e-06
 Reference value :  7.50925e-06
 Reference value :  7.51081e-06
 Reference value :  7.51262e-06
 Reference value :  7.51413e-06
 Reference value :  7.51576e-06
 Reference value :  7.51764e-06
 Reference value :  7.51961e-06
 Reference value :  7.52315e-06
 Reference value :  7.52807e-06
 Reference value :  7.53679e-06
 Reference value :  7.55133e-06
 Reference value :  7.57585e-06
 Reference value :  7.61936e-06
 Reference value :  7.70638e-06
 Reference value :  7.75010e-06
 Reference value :  7.75011e-06
 Reference value :  7.75013e-06
 Reference value :  7.75017e-06
 Reference value :  7.75020e-06
 Reference value :  7.75020e-06
 Reference value :  7.75020e-06
 Reference value :  7.75020e-06
 Reference value :  7.75021e-06
 Reference value :  7.75022e-06
 Reference value :  7.75023e-06
 Reference value :  7.75027e-06
 Reference value :  7.75033e-06
 Reference value :  7.75042e-06
 Reference value :  7.75057e-06
 Reference value :  7.75081e-06
 Reference value :  7.75107e-06
 Reference value :  7.75160e-06
 Reference value :  7.75223e-06
 Reference value :  7.75289e-06
 Reference value :  7.75361e-06
 Reference value :  7.75454e-06
 Reference value :  7.75554e-06
 Reference value :  7.75657e-06
 Reference value :  7.75761e-06
 Reference value :  7.75857e-06
 Reference value :  7.75956e-06
 Reference value :  7.76070e-06
 Reference value :  7.76194e-06
 Reference value :  7.76329e-06
 Reference value :  7.76485e-06
 Reference value :  7.76727e-06
 Reference value :  7.76992e-06
 Reference value :  7.77425e-06
 Reference value :  7.78133e-06
 Reference value :  7.79548e-06
 Reference value :  7.81950e-06
 Reference value :  7.86485e-06
 Reference value :  7.94772e-06
 Reference value :  8.00000e-06
 Reference value :  8.00001e-06
 Reference value :  8.00003e-06
 Reference value :  8.00007e-06
 Reference value :  8.00010e-06
 Reference value :  8.00010e-06
 Reference value :  8.00010e-06
 Reference value :  8.00010e-06
 Reference value :  8.00011e-06
 Reference value :  8.00012e-06
 Reference value :  8.00013e-06
 Reference value :  8.00017e-06
 Reference value :  8.00023e-06
 Reference value :  8.00031e-06
 Reference value :  8.00047e-06
 Reference value :  8.00077e-06
 Reference value :  8.00138e-06
 Reference value :  8.00201e-06
 Reference value :  8.00274e-06
 Reference value :  8.00339e-06
 Reference value :  8.00414e-06
 Reference value :  8.00497e-06
 Reference value :  8.00588e-06
 Reference value :  8.00680e-06
 Reference value :  8.00766e-06
 Reference value :  8.00860e-06
 Reference value :  8.00961e-06
 Reference value :  8.01076e-06
 Reference value :  8.01202e-06
 Reference value :  8.01357e-06
 Reference value :  8.01506e-06
 Reference value :  8.01659e-06
 Reference value :  8.01796e-06
 Reference value :  8.01945e-06
 Reference value :  8.02110e-06
 Reference value :  8.02293e-06
 Reference value :  8.02382e-06
 Reference value :  8.02491e-06
 Reference value :  8.02621e-06
 Reference value :  8.02881e-06
 Reference value :  8.03209e-06
 Reference value :  8.03867e-06
 Reference value :  8.04666e-06
 Reference value :  8.05942e-06
 Reference value :  8.07661e-06
 Reference value :  8.10882e-06
 Reference value :  8.15619e-06
 Reference value :  8.24685e-06
 Reference value :  8.25010e-06
 Reference value :  8.25011e-06
 Reference value :  8.25013e-06
 Reference value :  8.25017e-06
 Reference value :  8.25020e-06
 Reference value :  8.25020e-06
 Reference value :  8.25020e-06
 Reference value :  8.25020e-06
 Reference value :  8.25021e-06
 Reference value :  8.25022e-06
 Reference value :  8.25023e-06
 Reference value :  8.25027e-06
 Reference value :  8.25033e-06
 Reference value :  8.25042e-06
 Reference value :  8.25057e-06
 Reference value :  8.25076e-06
 Reference value :  8.25113e-06
 Reference value :  8.25176e-06
 Reference value :  8.25242e-06
 Reference value :  8.25311e-06
 Reference value :  8.25389e-06
 Reference value :  8.25489e-06
 Reference value :  8.25595e-06
 Reference value :  8.25710e-06
 Reference value :  8.25849e-06
 Reference value :  8.26004e-06
 Reference value :  8.26254e-06
 Reference value :  8.26519e-06
 Reference value :  8.26939e-06
 Reference value :  8.27601e-06
 Reference value :  8.28555e-06
 Reference value :  8.30123e-06
 Reference value :  8.32485e-06
 Reference value :  8.36214e-06
 Reference value :  8.42068e-06
 Reference value :  8.50000e-06
 Reference value :  8.50000e-06
 Reference value :  8.50000e-06
 Reference value :  8.50000e-06
 Reference value :  8.50000e-06
 Reference value :  8.50000e-06
 Reference value :  8.50000e-06
 Reference value :  8.50000e-06
 Reference value :  8.50000e-06
 Reference value :  8.50000e-06
 Reference value :  8.50001e-06
 Reference value :  8.50001e-06
 Reference value :  8.50002e-06
 Reference value :  8.50004e-06
 Reference value :  8.50008e-06
 Reference value :  8.50010e-06
 Reference value :  8.50010e-06
 Reference value :  8.50010e-06
 Reference value :  8.50010e-06
 Reference value :  8.50011e-06
 Reference value :  8.50011e-06
 Reference value :  8.50012e-06
 Reference value :  8.50014e-06
 Reference value :  8.50019e-06
 Reference value :  8.50026e-06
 Reference value :  8.50036e-06
 Reference value :  8.50056e-06
 Reference value :  8.50096e-06
 Reference value :  8.50163e-06
 Reference value :  8.50234e-06
 Reference value :  8.50315e-06
 Reference value :  8.50389e-06
 Reference value :  8.50470e-06
 Reference value :  8.50559e-06
 Reference value :  8.50652e-06
 Reference value :  8.50792e-06
 Reference value :  8.50889e-06
 Reference value :  8.50997e-06
 Reference value :  8.51130e-06
 Reference value :  8.51276e-06
 Reference value :  8.51553e-06
 Reference value :  8.51914e-06
 Reference value :  8.52612e-06
 Reference value :  8.53778e-06
 Reference value :  8.54964e-06
 Reference value :  8.55790e-06
 Reference value :  8.56560e-06
 Reference value :  8.57025e-06
 Reference value :  8.57425e-06
 Reference value :  8.57858e-06
 Reference value :  8.58552e-06
 Reference value :  8.59308e-06
 Reference value :  8.60517e-06
 Reference value :  8.62169e-06
 Reference value :  8.64546e-06
 Reference value :  8.68164e-06
 Reference value :  8.73557e-06
 Reference value :  8.75010e-06
 Reference value :  8.75011e-06
 Reference value :  8.75013e-06
 Reference value :  8.75017e-06
 Reference value :  8.75020e-06
 Reference value :  8.75020e-06
 Reference value :  8.75020e-06
 Reference value :  8.75020e-06
 Reference value :  8.75021e-06
 Reference value :  8.75022e-06
 Reference value :  8.75023e-06
 Reference value :  8.75027e-06
 Reference value :  8.75033e-06
 Reference value :  8.75047e-06
 Reference value :  8.75064e-06
 Reference value :  8.75091e-06
 Reference value :  8.75145e-06
 Reference value :  8.75211e-06
 Reference value :  8.75281e-06
 Reference value :  8.75354e-06
 Reference value :  8.75447e-06
 Reference value :  8.75552e-06
 Reference value :  8.75660e-06
 Reference value :  8.75760e-06
 Reference value :  8.75867e-06
 Reference value :  8.75993e-06
 Reference value :  8.76122e-06
 Reference value :  8.76268e-06
 Reference value :  8.76559e-06
 Reference value :  8.76960e-06
 Reference value :  8.77676e-06
 Reference value :  8.78832e-06
 Reference value :  8.80735e-06
 Reference value :  8.83996e-06
 Reference value :  8.90049e-06
 Reference value :  9.00000e-06
 Reference value :  9.00001e-06
 Reference value :  9.00003e-06
 Reference value :  9.00007e-06
 Reference value :  9.00010e-06
 Reference value :  9.00010e-06
 Reference value :  9.00010e-06
 Reference value :  9.00010e-06
 Reference value :  9.00011e-06
 Reference value :  9.00012e-06
 Reference value :  9.00013e-06
 Reference value :  9.00017e-06
 Reference value :  9.00023e-06
 Reference value :  9.00036e-06
 Reference value :  9.00056e-06
 Reference value :  9.00096e-06
 Reference value :  9.00147e-06
 Reference value :  9.00201e-06
 Reference value :  9.00276e-06
 Reference value :  9.00357e-06
 Reference value :  9.00432e-06
 Reference value :  9.00513e-06
 Reference value :  9.00613e-06
 Reference value :  9.00715e-06
 Reference value :  9.00835e-06
 Reference value :  9.00971e-06
 Reference value :  9.01140e-06
 Reference value :  9.01344e-06
 Reference value :  9.01532e-06
 Reference value :  9.01715e-06
 Reference value :  9.01998e-06
 Reference value :  9.02274e-06
 Reference value :  9.02597e-06
 Reference value :  9.02893e-06
 Reference value :  9.03198e-06
 Reference value :  9.03589e-06
 Reference value :  9.04076e-06
 Reference value :  9.04763e-06
 Reference value :  9.05439e-06
 Reference value :  9.06599e-06
 Reference value :  9.08663e-06
 Reference value :  9.11770e-06
 Reference value :  9.17460e-06
 Reference value :  9.25010e-06
 Reference value :  9.25011e-06
 Reference value :  9.25013e-06
 Reference value :  9.25017e-06
 Reference value :  9.25020e-06
 Reference value :  9.25020e-06
 Reference value :  9.25020e-06
 Reference value :  9.25020e-06
 Reference value :  9.25021e-06
 Reference value :  9.25022e-06
 Reference value :  9.25023e-06
 Reference value :  9.25027e-06
 Reference value :  9.25033e-06
 Reference value :  9.25047e-06
 Reference value :  9.25064e-06
 Reference value :  9.25091e-06
 Reference value :  9.25145e-06
 Reference value :  9.25210e-06
 Reference value :  9.25280e-06
 Reference value :  9.25353e-06
 Reference value :  9.25443e-06
 Reference value :  9.25552e-06
 Reference value :  9.25665e-06
 Reference value :  9.25768e-06
 Reference value :  9.25876e-06
 Reference value :  9.25975e-06
 Reference value :  9.26079e-06
 Reference value :  9.26187e-06
 Reference value :  9.26304e-06
 Reference value :  9.26447e-06
 Reference value :  9.26596e-06
 Reference value :  9.26829e-06
 Reference value :  9.27083e-06
 Reference value :  9.27494e-06
 Reference value :  9.28124e-06
 Reference value :  9.29039e-06
 Reference value :  9.30528e-06
 Reference value :  9.32754e-06
 Reference value :  9.37045e-06
 Reference value :  9.45626e-06
 Reference value :  9.50000e-06
 Reference value :  9.50001e-06
 Reference value :  9.50003e-06
 Reference value :  9.50007e-06
 Reference value :  9.50010e-06
 Reference value :  9.50010e-06
 Reference value :  9.50010e-06
 Reference value :  9.50010e-06
 Reference value :  9.50011e-06
 Reference value :  9.50012e-06
 Reference value :  9.50013e-06
 Reference value :  9.50017e-06
 Reference value :  9.50023e-06
 Reference value :  9.50036e-06
 Reference value :  9.50056e-06
 Reference value :  9.50096e-06
 Reference value :  9.50147e-06
 Reference value :  9.50201e-06
 Reference value :  9.50276e-06
 Reference value :  9.50346e-06
 Reference value :  9.50420e-06
 Reference value :  9.50499e-06
 Reference value :  9.50587e-06
 Reference value :  9.50691e-06
 Reference value :  9.50768e-06
 Reference value :  9.50855e-06
 Reference value :  9.50939e-06
 Reference value :  9.51026e-06
 Reference value :  9.51144e-06
 Reference value :  9.51269e-06
 Reference value :  9.51520e-06
 Reference value :  9.51755e-06
 Reference value :  9.51942e-06
 Reference value :  9.52149e-06
 Reference value :  9.52429e-06
 Reference value :  9.52653e-06
 Reference value :  9.52856e-06
 Reference value :  9.53008e-06
 Reference value :  9.53149e-06
 Reference value :  9.53302e-06
 Reference value :  9.53458e-06
 Reference value :  9.53634e-06
 Reference value :  9.53910e-06
 Reference value :  9.54198e-06
 Reference value :  9.54774e-06
 Reference value :  9.55622e-06
 Reference value :  9.57035e-06
 Reference value :  9.59624e-06
 Reference value :  9.64130e-06
 Reference value :  9.71903e-06
 Reference value :  9.75010e-06
 Reference value :  9.75011e-06
 Reference value :  9.75013e-06
 Reference value :  9.75017e-06
 Reference value :  9.75020e-06
 Reference value :  9.75020e-06
 Reference value :  9.75020e-06
 Reference value :  9.75020e-06
 Reference value :  9.75021e-06
 Reference value :  9.75022e-06
 Reference value :  9.75023e-06
 Reference value :  9.75027e-06
 Reference value :  9.75033e-06
 Reference value :  9.75047e-06
 Reference value :  9.75064e-06
 Reference value :  9.75091e-06
 Reference value :  9.75145e-06
 Reference value :  9.75210e-06
 Reference value :  9.75288e-06
 Reference value :  9.75358e-06
 Reference value :  9.75455e-06
 Reference value :  9.75561e-06
 Reference value :  9.75651e-06
 Reference value :  9.75757e-06
 Reference value :  9.75867e-06
 Reference value :  9.75981e-06
 Reference value :  9.76129e-06
 Reference value :  9.76380e-06
 Reference value :  9.76725e-06
 Reference value :  9.77223e-06
 Reference value :  9.78219e-06
 Reference value :  9.79748e-06
 Reference value :  9.82535e-06
 Reference value :  9.88108e-06
 Reference value :  9.99090e-06
 Reference value :  1.00000e-05
 Reference value :  1.00000e-05
 Reference value :  1.00000e-05
 Reference value :  1.00001e-05
 Reference value :  1.00001e-05
 Reference value :  1.00001e-05
 Reference value :  1.00001e-05
 Reference value :  1.00001e-05
 Reference value :  1.00001e-05
 Reference value :  1.00001e-05
 Reference value :  1.00001e-05
 Reference value :  1.00002e-05
 Reference value :  1.00002e-05
 Reference value :  1.00004e-05
 Reference value :  1.00006e-05
 Reference value :  1.00010e-05
 Reference value :  1.00015e-05
 Reference value :  1.00020e-05
 Reference value :  1.00027e-05
 Reference value :  1.00034e-05
 Reference value :  1.00042e-05
 Reference value :  1.00050e-05
 Reference value :  1.00059e-05
 Reference value :  1.00069e-05
 Reference value :  1.00079e-05
 Reference value :  1.00096e-05
 Reference value :  1.00112e-05
 Reference value :  1.00132e-05
 Reference value :  1.00148e-05
 Reference value :  1.00165e-05
 Reference value :  1.00187e-05
 Reference value :  1.00210e-05
 Reference value :  1.00248e-05
 Reference value :  1.00298e-05
 Reference value :  1.00376e-05
 Reference value :  1.00500e-05
 Reference value :  1.00720e-05
 Reference value :  1.01140e-05
 Reference value :  1.01869e-05
 Reference value :  1.02501e-05
 Reference value :  1.02501e-05
 Reference value :  1.02501e-05
 Reference value :  1.02502e-05
 Reference value :  1.02502e-05
 Reference value :  1.02502e-05
 Reference value :  1.02502e-05
 Reference value :  1.02502e-05
 Reference value :  1.02502e-05
 Reference value :  1.02502e-05
 Reference value :  1.02502e-05
 Reference value :  1.02503e-05
 Reference value :  1.02503e-05
 Reference value :  1.02505e-05
 Reference value :  1.02506e-05
 Reference value :  1.02509e-05
 Reference value :  1.02515e-05
 Reference value :  1.02521e-05
 Reference value :  1.02529e-05
 Reference value :  1.02536e-05
 Reference value :  1.02545e-05
 Reference value :  1.02556e-05
 Reference value :  1.02565e-05
 Reference value :  1.02576e-05
 Reference value :  1.02585e-05
 Reference value :  1.02595e-05
 Reference value :  1.02606e-05
 Reference value :  1.02619e-05
 Reference value :  1.02634e-05
 Reference value :  1.02650e-05
 Reference value :  1.02674e-05
 Reference value :  1.02700e-05
 Reference value :  1.02743e-05
 Reference value :  1.02830e-05
 Reference value :  1.02960e-05
 Reference value :  1.03214e-05
 Reference value :  1.03641e-05
 Reference value :  1.04396e-05
 Reference value :  1.05000e-05
 Reference value :  1.05000e-05
 Reference value :  1.05000e-05
 Reference value :  1.05001e-05
 Reference value :  1.05001e-05
 Reference value :  1.05001e-05
 Reference value :  1.05001e-05
 Reference value :  1.05001e-05
 Reference value :  1.05001e-05
 Reference value :  1.05001e-05
 Reference value :  1.05001e-05
 Reference value :  1.05002e-05
 Reference value :  1.05002e-05
 Reference value :  1.05004e-05
 Reference value :  1.05006e-05
 Reference value :  1.05010e-05
 Reference value :  1.05015e-05
 Reference value :  1.05020e-05
 Reference value :  1.05027e-05
 Reference value :  1.05034e-05
 Reference value :  1.05042e-05
 Reference value :  1.05050e-05
 Reference value :  1.05059e-05
 Reference value :  1.05066e-05
 Reference value :  1.05075e-05
 Reference value :  1.05082e-05
 Reference value :  1.05090e-05
 Reference value :  1.05101e-05
 Reference value :  1.05112e-05
 Reference value :  1.05132e-05
 Reference value :  1.05154e-05
 Reference value :  1.05176e-05
 Reference value :  1.05198e-05
 Reference value :  1.05219e-05
 Reference value :  1.05242e-05
 Reference value :  1.05260e-05
 Reference value :  1.05275e-05
 Reference value :  1.05290e-05
 Reference value :  1.05307e-05
 Reference value :  1.05327e-05
 Reference value :  1.05347e-05
 Reference value :  1.05377e-05
 Reference value :  1.05415e-05
 Reference value :  1.05489e-05
 Reference value :  1.05588e-05
 Reference value :  1.05767e-05
 Reference value :  1.05995e-05
 Reference value :  1.06451e-05
 Reference value :  1.07130e-05
 Reference value :  1.07501e-05
 Reference value :  1.07501e-05
 Reference value :  1.07501e-05
 Reference value :  1.07502e-05
 Reference value :  1.07502e-05
 Reference value :  1.07502e-05
 Reference value :  1.07502e-05
 Reference value :  1.07502e-05
 Reference value :  1.07502e-05
 Reference value :  1.07502e-05
 Reference value :  1.07502e-05
 Reference value :  1.07503e-05
 Reference value :  1.07503e-05
 Reference value :  1.07505e-05
 Reference value :  1.07506e-05
 Reference value :  1.07509e-05
 Reference value :  1.07515e-05
 Reference value :  1.07521e-05
 Reference value :  1.07529e-05
 Reference value :  1.07536e-05
 Reference value :  1.07545e-05
 Reference value :  1.07555e-05
 Reference value :  1.07565e-05
 Reference value :  1.07575e-05
 Reference value :  1.07585e-05
 Reference value :  1.07602e-05
 Reference value :  1.07620e-05
 Reference value :  1.07646e-05
 Reference value :  1.07682e-05
 Reference value :  1.07743e-05
 Reference value :  1.07845e-05
 Reference value :  1.08004e-05
 Reference value :  1.08298e-05
 Reference value :  1.08876e-05
 Reference value :  1.09520e-05
 Reference value :  1.10000e-05
 Reference value :  1.10000e-05
 Reference value :  1.10000e-05
 Reference value :  1.10001e-05
 Reference value :  1.10001e-05
 Reference value :  1.10001e-05
 Reference value :  1.10001e-05
 Reference value :  1.10001e-05
 Reference value :  1.10001e-05
 Reference value :  1.10001e-05
 Reference value :  1.10001e-05
 Reference value :  1.10002e-05
 Reference value :  1.10002e-05
 Reference value :  1.10004e-05
 Reference value :  1.10005e-05
 Reference value :  1.10009e-05
 Reference value :  1.10014e-05
 Reference value :  1.10019e-05
 Reference value :  1.10026e-05
 Reference value :  1.10033e-05
 Reference value :  1.10039e-05
 Reference value :  1.10047e-05
 Reference value :  1.10056e-05
 Reference value :  1.10064e-05
 Reference value :  1.10076e-05
 Reference value :  1.10089e-05
 Reference value :  1.10109e-05
 Reference value :  1.10124e-05
 Reference value :  1.10139e-05
 Reference value :  1.10155e-05
 Reference value :  1.10172e-05
 Reference value :  1.10190e-05
 Reference value :  1.10226e-05
 Reference value :  1.10272e-05
 Reference value :  1.10358e-05
 Reference value :  1.10508e-05
 Reference value :  1.10766e-05
 Reference value :  1.11282e-05
 Reference value :  1.12315e-05
 Reference value :  1.12501e-05
 Reference value :  1.12501e-05
 Reference value :  1.12501e-05
 Reference value :  1.12502e-05
 Reference value :  1.12502e-05
 Reference value :  1.12502e-05
 Reference value :  1.12502e-05
 Reference value :  1.12502e-05
 Reference value :  1.12502e-05
 Reference value :  1.12502e-05
 Reference value :  1.12502e-05
 Reference value :  1.12503e-05
 Reference value :  1.12503e-05
 Reference value :  1.12505e-05
 Reference value :  1.12506e-05
 Reference value :  1.12509e-05
 Reference value :  1.12515e-05
 Reference value :  1.12521e-05
 Reference value :  1.12529e-05
 Reference value :  1.12536e-05
 Reference value :  1.12546e-05
 Reference value :  1.12556e-05
 Reference value :  1.12566e-05
 Reference value :  1.12575e-05
 Reference value :  1.12584e-05
 Reference value :  1.12596e-05
 Reference value :  1.12608e-05
 Reference value :  1.12622e-05
 Reference value :  1.12638e-05
 Reference value :  1.12661e-05
 Reference value :  1.12687e-05
 Reference value :  1.12730e-05
 Reference value :  1.12799e-05
 Reference value :  1.12938e-05
 Reference value :  1.13182e-05
 Reference value :  1.13639e-05
 Reference value :  1.14496e-05
 Reference value :  1.15000e-05
 Reference value :  1.15000e-05
 Reference value :  1.15000e-05
 Reference value :  1.15001e-05
 Reference value :  1.15001e-05
 Reference value :  1.15001e-05
 Reference value :  1.15001e-05
 Reference value :  1.15001e-05
 Reference value :  1.15001e-05
 Reference value :  1.15001e-05
 Reference value :  1.15001e-05
 Reference value :  1.15002e-05
 Reference value :  1.15002e-05
 Reference value :  1.15004e-05
 Reference value :  1.15005e-05
 Reference value :  1.15009e-05
 Reference value :  1.15014e-05
 Reference value :  1.15019e-05
 Reference value :  1.15027e-05
 Reference value :  1.15034e-05
 Reference value :  1.15041e-05
 Reference value :  1.15049e-05
 Reference value :  1.15057e-05
 Reference value :  1.15065e-05
 Reference value :  1.15074e-05
 Reference value :  1.15081e-05
 Reference value :  1.15089e-05
 Reference value :  1.15101e-05
 Reference value :  1.15112e-05
 Reference value :  1.15130e-05
 Reference value :  1.15152e-05
 Reference value :  1.15168e-05
 Reference value :  1.15186e-05
 Reference value :  1.15205e-05
 Reference value :  1.15225e-05
 Reference value :  1.15239e-05
 Reference value :  1.15254e-05
 Reference value :  1.15267e-05
 Reference value :  1.15282e-05
 Reference value :  1.15299e-05
 Reference value :  1.15317e-05
 Reference value :  1.15345e-05
 Reference value :  1.15379e-05
 Reference value :  1.15449e-05
 Reference value :  1.15561e-05
 Reference value :  1.15727e-05
 Reference value :  1.16042e-05
 Reference value :  1.16552e-05
 Reference value :  1.17124e-05
 Reference value :  1.17501e-05
 Reference value :  1.17501e-05
 Reference value :  1.17501e-05
 Reference value :  1.17502e-05
 Reference value :  1.17502e-05
 Reference value :  1.17502e-05
 Reference value :  1.17502e-05
 Reference value :  1.17502e-05
 Reference value :  1.17502e-05
 Reference value :  1.17502e-05
 Reference value :  1.17502e-05
 Reference value :  1.17503e-05
 Reference value :  1.17503e-05
 Reference value :  1.17505e-05
 Reference value :  1.17506e-05
 Reference value :  1.17509e-05
 Reference value :  1.17515e-05
 Reference value :  1.17521e-05
 Reference value :  1.17529e-05
 Reference value :  1.17536e-05
 Reference value :  1.17545e-05
 Reference value :  1.17556e-05
 Reference value :  1.17565e-05
 Reference value :  1.17575e-05
 Reference value :  1.17585e-05
 Reference value :  1.17600e-05
 Reference value :  1.17616e-05
 Reference value :  1.17643e-05
 Reference value :  1.17677e-05
 Reference value :  1.17734e-05
 Reference value :  1.17845e-05
 Reference value :  1.18009e-05
 Reference value :  1.18336e-05
 Reference value :  1.18990e-05
 Reference value :  1.20000e-05
 Reference value :  1.20000e-05
 Reference value :  1.20000e-05
 Reference value :  1.20001e-05
 Reference value :  1.20001e-05
 Reference value :  1.20001e-05
 Reference value :  1.20001e-05
 Reference value :  1.20001e-05
 Reference value :  1.20001e-05
 Reference value :  1.20001e-05
 Reference value :  1.20001e-05
 Reference value :  1.20002e-05
 Reference value :  1.20002e-05
 Reference value :  1.20004e-05
 Reference value :  1.20005e-05
 Reference value :  1.20009e-05
 Reference value :  1.20014e-05
 Reference value :  1.20019e-05
 Reference value :  1.20027e-05
 Reference value :  1.20034e-05
 Reference value :  1.20041e-05
 Reference value :  1.20049e-05
 Reference value :  1.20058e-05
 Reference value :  1.20068e-05
 Reference value :  1.20080e-05
 Reference value :  1.20097e-05
 Reference value :  1.20111e-05
 Reference value :  1.20129e-05
 Reference value :  1.20145e-05
 Reference value :  1.20164e-05
 Reference value :  1.20182e-05
 Reference value :  1.20205e-05
 Reference value :  1.20240e-05
 Reference value :  1.20292e-05
 Reference value :  1.20382e-05
 Reference value :  1.20545e-05
 Reference value :  1.20836e-05
 Reference value :  1.21386e-05
 Reference value :  1.22486e-05
 Reference value :  1.22501e-05
 Reference value :  1.22501e-05
 Reference value :  1.22501e-05
 Reference value :  1.22502e-05
 Reference value :  1.22502e-05
 Reference value :  1.22502e-05
 Reference value :  1.22502e-05
 Reference value :  1.22502e-05
 Reference value :  1.22502e-05
 Reference value :  1.22502e-05
 Reference value :  1.22502e-05
 Reference value :  1.22503e-05
 Reference value :  1.22503e-05
 Reference value :  1.22505e-05
 Reference value :  1.22506e-05
 Reference value :  1.22509e-05
 Reference value :  1.22515e-05
 Reference value :  1.22521e-05
 Reference value :  1.22529e-05
 Reference value :  1.22536e-05
 Reference value :  1.22545e-05
 Reference value :  1.22556e-05
 Reference value :  1.22565e-05
 Reference value :  1.22575e-05
 Reference value :  1.22584e-05
 Reference value :  1.22595e-05
 Reference value :  1.22606e-05
 Reference value :  1.22620e-05
 Reference value :  1.22635e-05
 Reference value :  1.22660e-05
 Reference value :  1.22685e-05
 Reference value :  1.22721e-05
 Reference value :  1.22773e-05
 Reference value :  1.22876e-05
 Reference value :  1.23083e-05
 Reference value :  1.23495e-05
 Reference value :  1.24320e-05
 Reference value :  1.25000e-05
 Reference value :  1.25000e-05
 Reference value :  1.25000e-05
 Reference value :  1.25001e-05
 Reference value :  1.25001e-05
 Reference value :  1.25001e-05
 Reference value :  1.25001e-05
 Reference value :  1.25001e-05
 Reference value :  1.25001e-05
 Reference value :  1.25001e-05
 Reference value :  1.25001e-05
 Reference value :  1.25002e-05
 Reference value :  1.25002e-05
 Reference value :  1.25004e-05
 Reference value :  1.25005e-05
 Reference value :  1.25009e-05
 Reference value :  1.25014e-05
 Reference value :  1.25019e-05
 Reference value :  1.25027e-05
 Reference value :  1.25034e-05
 Reference value :  1.25041e-05
 Reference value :  1.25049e-05
 Reference value :  1.25057e-05
 Reference value :  1.25065e-05
 Reference value :  1.25073e-05
 Reference value :  1.25080e-05
 Reference value :  1.25089e-05
 Reference value :  1.25097e-05
 Reference value :  1.25110e-05
 Reference value :  1.25121e-05
 Reference value :  1.25142e-05
 Reference value :  1.25164e-05
 Reference value :  1.25181e-05
 Reference value :  1.25200e-05
 Reference value :  1.25225e-05
 Reference value :  1.25246e-05
 Reference value :  1.25261e-05
 Reference value :  1.25276e-05
 Reference value :  1.25292e-05
 Reference value :  1.25309e-05
 Reference value :  1.25328e-05
 Reference value :  1.25359e-05
 Reference value :  1.25389e-05
 Reference value :  1.25451e-05
 Reference value :  1.25545e-05
 Reference value :  1.25704e-05
 Reference value :  1.25954e-05
 Reference value :  1.26252e-05
 Reference value :  1.26401e-05
 Reference value :  1.26614e-05
 Reference value :  1.26824e-05
 Reference value :  1.27244e-05
 Reference value :  1.27501e-05
 Reference value :  1.27501e-05
 Reference value :  1.27501e-05
 Reference value :  1.27502e-05
 Reference value :  1.27502e-05
 Reference value :  1.27502e-05
 Reference value :  1.27502e-05
 Reference value :  1.27502e-05
 Reference value :  1.27502e-05
 Reference value :  1.27502e-05
 Reference value :  1.27502e-05
 Reference value :  1.27503e-05
 Reference value :  1.27503e-05
 Reference value :  1.27504e-05
 Reference value :  1.27506e-05
 Reference value :  1.27508e-05
 Reference value :  1.27511e-05
 Reference value :  1.27517e-05
 Reference value :  1.27523e-05
 Reference value :  1.27530e-05
 Reference value :  1.27538e-05
 Reference value :  1.27547e-05
 Reference value :  1.27555e-05
 Reference value :  1.27564e-05
 Reference value :  1.27573e-05
 Reference value :  1.27583e-05
 Reference value :  1.27598e-05
 Reference value :  1.27613e-05
 Reference value :  1.27639e-05
 Reference value :  1.27672e-05
 Reference value :  1.27723e-05
 Reference value :  1.27825e-05
 Reference value :  1.28029e-05
 Reference value :  1.28436e-05
 Reference value :  1.29252e-05
 Reference value :  1.30000e-05
 Reference value :  1.30000e-05
 Reference value :  1.30000e-05
 Reference value :  1.30001e-05
 Reference value :  1.30001e-05
 Reference value :  1.30001e-05
 Reference value :  1.30001e-05
 Reference value :  1.30001e-05
 Reference value :  1.30001e-05
 Reference value :  1.30001e-05
 Reference value :  1.30001e-05
 Reference value :  1.30002e-05
 Reference value :  1.30002e-05
 Reference value :  1.30004e-05
 Reference value :  1.30006e-05
 Reference value :  1.30011e-05
 Reference value :  1.30017e-05
 Reference value :  1.30025e-05
 Reference value :  1.30031e-05
 Reference value :  1.30039e-05
 Reference value :  1.30048e-05
 Reference value :  1.30058e-05
 Reference value :  1.30067e-05
 Reference value :  1.30079e-05
 Reference value :  1.30093e-05
 Reference value :  1.30110e-05
 Reference value :  1.30123e-05
 Reference value :  1.30138e-05
 Reference value :  1.30152e-05
 Reference value :  1.30169e-05
 Reference value :  1.30186e-05
 Reference value :  1.30219e-05
 Reference value :  1.30266e-05
 Reference value :  1.30354e-05
 Reference value :  1.30520e-05
 Reference value :  1.30813e-05
 Reference value :  1.31399e-05
 Reference value :  1.32501e-05
 Reference value :  1.32501e-05
 Reference value :  1.32501e-05
 Reference value :  1.32502e-05
 Reference value :  1.32502e-05
 Reference value :  1.32502e-05
 Reference value :  1.32502e-05
 Reference value :  1.32502e-05
 Reference value :  1.32502e-05
 Reference value :  1.32502e-05
 Reference value :  1.32502e-05
 Reference value :  1.32503e-05
 Reference value :  1.32503e-05
 Reference value :  1.32504e-05
 Reference value :  1.32506e-05
 Reference value :  1.32508e-05
 Reference value :  1.32511e-05
 Reference value :  1.32517e-05
 Reference value :  1.32523e-05
 Reference value :  1.32530e-05
 Reference value :  1.32538e-05
 Reference value :  1.32547e-05
 Reference value :  1.32555e-05
 Reference value :  1.32565e-05
 Reference value :  1.32573e-05
 Reference value :  1.32582e-05
 Reference value :  1.32592e-05
 Reference value :  1.32604e-05
 Reference value :  1.32618e-05
 Reference value :  1.32632e-05
 Reference value :  1.32656e-05
 Reference value :  1.32681e-05
 Reference value :  1.32719e-05
 Reference value :  1.32771e-05
 Reference value :  1.32875e-05
 Reference value :  1.33083e-05
 Reference value :  1.33498e-05
 Reference value :  1.34328e-05
 Reference value :  1.35000e-05
 Reference value :  1.35000e-05
 Reference value :  1.35000e-05
 Reference value :  1.35001e-05
 Reference value :  1.35001e-05
 Reference value :  1.35001e-05
 Reference value :  1.35001e-05
 Reference value :  1.35001e-05
 Reference value :  1.35001e-05
 Reference value :  1.35001e-05
 Reference value :  1.35001e-05
 Reference value :  1.35002e-05
 Reference value :  1.35002e-05
 Reference value :  1.35004e-05
 Reference value :  1.35006e-05
 Reference value :  1.35011e-05
 Reference value :  1.35017e-05
 Reference value :  1.35025e-05
 Reference value :  1.35031e-05
 Reference value :  1.35039e-05
 Reference value :  1.35047e-05
 Reference value :  1.35056e-05
 Reference value :  1.35064e-05
 Reference value :  1.35072e-05
 Reference value :  1.35079e-05
 Reference value :  1.35087e-05
 Reference value :  1.35097e-05
 Reference value :  1.35108e-05
 Reference value :  1.35129e-05
 Reference value :  1.35151e-05
 Reference value :  1.35174e-05
 Reference value :  1.35195e-05
 Reference value :  1.35213e-05
 Reference value :  1.35234e-05
 Reference value :  1.35255e-05
 Reference value :  1.35272e-05
 Reference value :  1.35288e-05
 Reference value :  1.35304e-05
 Reference value :  1.35320e-05
 Reference value :  1.35338e-05
 Reference value :  1.35361e-05
 Reference value :  1.35390e-05
 Reference value :  1.35430e-05
 Reference value :  1.35493e-05
 Reference value :  1.35590e-05
 Reference value :  1.35677e-05
 Reference value :  1.35764e-05
 Reference value :  1.35857e-05
 Reference value :  1.35983e-05
 Reference value :  1.36164e-05
 Reference value :  1.36345e-05
 Reference value :  1.36543e-05
 Reference value :  1.36786e-05
 Reference value :  1.37270e-05
 Reference value :  1.37501e-05
 Reference value :  1.37501e-05
 Reference value :  1.37501e-05
 Reference value :  1.37502e-05
 Reference value :  1.37502e-05
 Reference value :  1.37502e-05
 Reference value :  1.37502e-05
 Reference value :  1.37502e-05
 Reference value :  1.37502e-05
 Reference value :  1.37502e-05
 Reference value :  1.37502e-05
 Reference value :  1.37503e-05
 Reference value :  1.37503e-05
 Reference value :  1.37504e-05
 Reference value :  1.37506e-05
 Reference value :  1.37508e-05
 Reference value :  1.37511e-05
 Reference value :  1.37517e-05
 Reference value :  1.37523e-05
 Reference value :  1.37530e-05
 Reference value :  1.37538e-05
 Reference value :  1.37547e-05
 Reference value :  1.37558e-05
 Reference value :  1.37565e-05
 Reference value :  1.37574e-05
 Reference value :  1.37584e-05
 Reference value :  1.37595e-05
 Reference value :  1.37607e-05
 Reference value :  1.37630e-05
 Reference value :  1.37661e-05
 Reference value :  1.37706e-05
 Reference value :  1.37790e-05
 Reference value :  1.37959e-05
 Reference value :  1.38297e-05
 Reference value :  1.38972e-05
 Reference value :  1.40000e-05
 Reference value :  1.40000e-05
 Reference value :  1.40000e-05
 Reference value :  1.40001e-05
 Reference value :  1.40001e-05
 Reference value :  1.40001e-05
 Reference value :  1.40001e-05
 Reference value :  1.40001e-05
 Reference value :  1.40001e-05
 Reference value :  1.40001e-05
 Reference value :  1.40001e-05
 Reference value :  1.40002e-05
 Reference value :  1.40002e-05
 Reference value :  1.40004e-05
 Reference value :  1.40006e-05
 Reference value :  1.40010e-05
 Reference value :  1.40017e-05
 Reference value :  1.40024e-05
 Reference value :  1.40031e-05
 Reference value :  1.40039e-05
 Reference value :  1.40048e-05
 Reference value :  1.40058e-05
 Reference value :  1.40067e-05
 Reference value :  1.40078e-05
 Reference value :  1.40092e-05
 Reference value :  1.40108e-05
 Reference value :  1.40123e-05
 Reference value :  1.40137e-05
 Reference value :  1.40152e-05
 Reference value :  1.40168e-05
 Reference value :  1.40186e-05
 Reference value :  1.40221e-05
 Reference value :  1.40270e-05
 Reference value :  1.40366e-05
 Reference value :  1.40543e-05
 Reference value :  1.40859e-05
 Reference value :  1.41483e-05
 Reference value :  1.42501e-05
 Reference value :  1.42501e-05
 Reference value :  1.42501e-05
 Reference value :  1.42502e-05
 Reference value :  1.42502e-05
 Reference value :  1.42502e-05
 Reference value :  1.42502e-05
 Reference value :  1.42502e-05
 Reference value :  1.42502e-05
 Reference value :  1.42502e-05
 Reference value :  1.42502e-05
 Reference value :  1.42503e-05
 Reference value :  1.42503e-05
 Reference value :  1.42504e-05
 Reference value :  1.42506e-05
 Reference value :  1.42508e-05
 Reference value :  1.42511e-05
 Reference value :  1.42517e-05
 Reference value :  1.42523e-05
 Reference value :  1.42530e-05
 Reference value :  1.42538e-05
 Reference value :  1.42547e-05
 Reference value :  1.42557e-05
 Reference value :  1.42565e-05
 Reference value :  1.42574e-05
 Reference value :  1.42584e-05
 Reference value :  1.42593e-05
 Reference value :  1.42604e-05
 Reference value :  1.42616e-05
 Reference value :  1.42631e-05
 Reference value :  1.42647e-05
 Reference value :  1.42669e-05
 Reference value :  1.42694e-05
 Reference value :  1.42736e-05
 Reference value :  1.42817e-05
 Reference value :  1.42940e-05
 Reference value :  1.43175e-05
 Reference value :  1.43567e-05
 Reference value :  1.44257e-05
 Reference value :  1.45000e-05
 Reference value :  1.45000e-05
 Reference value :  1.45000e-05
 Reference value :  1.45001e-05
 Reference value :  1.45001e-05
 Reference value :  1.45001e-05
 Reference value :  1.45001e-05
 Reference value :  1.45001e-05
 Reference value :  1.45001e-05
 Reference value :  1.45001e-05
 Reference value :  1.45001e-05
 Reference value :  1.45002e-05
 Reference value :  1.45002e-05
 Reference value :  1.45004e-05
 Reference value :  1.45006e-05
 Reference value :  1.45010e-05
 Reference value :  1.45017e-05
 Reference value :  1.45024e-05
 Reference value :  1.45031e-05
 Reference value :  1.45039e-05
 Reference value :  1.45048e-05
 Reference value :  1.45057e-05
 Reference value :  1.45067e-05
 Reference value :  1.45076e-05
 Reference value :  1.45085e-05
 Reference value :  1.45095e-05
 Reference value :  1.45108e-05
 Reference value :  1.45120e-05
 Reference value :  1.45144e-05
 Reference value :  1.45170e-05
 Reference value :  1.45190e-05
 Reference value :  1.45211e-05
 Reference value :  1.45231e-05
 Reference value :  1.45258e-05
 Reference value :  1.45279e-05
 Reference value :  1.45294e-05
 Reference value :  1.45310e-05
 Reference value :  1.45329e-05
 Reference value :  1.45348e-05
 Reference value :  1.45370e-05
 Reference value :  1.45400e-05
 Reference value :  1.45440e-05
 Reference value :  1.45491e-05
 Reference value :  1.45546e-05
 Reference value :  1.45616e-05
 Reference value :  1.45713e-05
 Reference value :  1.45884e-05
 Reference value :  1.46186e-05
 Reference value :  1.46665e-05
 Reference value :  1.47321e-05
 Reference value :  1.47501e-05
 Reference value :  1.47501e-05
 Reference value :  1.47501e-05
 Reference value :  1.47502e-05
 Reference value :  1.47502e-05
 Reference value :  1.47502e-05
 Reference value :  1.47502e-05
 Reference value :  1.47502e-05
 Reference value :  1.47502e-05
 Reference value :  1.47502e-05
 Reference value :  1.47502e-05
 Reference value :  1.47503e-05
 Reference value :  1.47503e-05
 Reference value :  1.47504e-05
 Reference value :  1.47506e-05
 Reference value :  1.47508e-05
 Reference value :  1.47511e-05
 Reference value :  1.47517e-05
 Reference value :  1.47523e-05
 Reference value :  1.47530e-05
 Reference value :  1.47537e-05
 Reference value :  1.47546e-05
 Reference value :  1.47557e-05
 Reference value :  1.47569e-05
 Reference value :  1.47580e-05
 Reference value :  1.47591e-05
 Reference value :  1.47603e-05
 Reference value :  1.47621e-05
 Reference value :  1.47640e-05
 Reference value :  1.47676e-05
 Reference value :  1.47731e-05
 Reference value :  1.47826e-05
 Reference value :  1.48003e-05
 Reference value :  1.48312e-05
 Reference value :  1.48929e-05
 Reference value :  1.50000e-05
 Reference value :  1.50000e-05
 Reference value :  1.50000e-05
 Reference value :  1.50001e-05
 Reference value :  1.50001e-05
 Reference value :  1.50001e-05
 Reference value :  1.50001e-05
 Reference value :  1.50001e-05
 Reference value :  1.50001e-05
 Reference value :  1.50001e-05
 Reference value :  1.50001e-05
 Reference value :  1.50002e-05
 Reference value :  1.50002e-05
 Reference value :  1.50003e-05
 Reference value :  1.50005e-05
[...]
 Reference value :  1.74512e-04
 Reference value :  1.74514e-04
 Reference value :  1.74515e-04
 Reference value :  1.74517e-04
 Reference value :  1.74519e-04
 Reference value :  1.74522e-04
 Reference value :  1.74527e-04
 Reference value :  1.74535e-04
 Reference value :  1.74552e-04
 Reference value :  1.74581e-04
 Reference value :  1.74640e-04
 Reference value :  1.74750e-04
 Reference value :  1.74750e-04
 Reference value :  1.74750e-04
 Reference value :  1.74750e-04
 Reference value :  1.74750e-04
 Reference value :  1.74750e-04
 Reference value :  1.74750e-04
 Reference value :  1.74750e-04
 Reference value :  1.74750e-04
 Reference value :  1.74750e-04
 Reference value :  1.74750e-04
 Reference value :  1.74750e-04
 Reference value :  1.74750e-04
 Reference value :  1.74750e-04
 Reference value :  1.74751e-04
 Reference value :  1.74751e-04
 Reference value :  1.74751e-04
 Reference value :  1.74752e-04
 Reference value :  1.74752e-04
 Reference value :  1.74753e-04
 Reference value :  1.74754e-04
 Reference value :  1.74755e-04
 Reference value :  1.74756e-04
 Reference value :  1.74756e-04
 Reference value :  1.74757e-04
 Reference value :  1.74758e-04
 Reference value :  1.74759e-04
 Reference value :  1.74760e-04
 Reference value :  1.74762e-04
 Reference value :  1.74763e-04
 Reference value :  1.74766e-04
 Reference value :  1.74768e-04
 Reference value :  1.74772e-04
 Reference value :  1.74777e-04
 Reference value :  1.74788e-04
 Reference value :  1.74808e-04
 Reference value :  1.74850e-04
 Reference value :  1.74933e-04
 Reference value :  1.75000e-04
 Reference value :  1.75000e-04
 Reference value :  1.75000e-04
 Reference value :  1.75000e-04
 Reference value :  1.75000e-04
 Reference value :  1.75000e-04
 Reference value :  1.75000e-04
 Reference value :  1.75000e-04
 Reference value :  1.75000e-04
 Reference value :  1.75000e-04
 Reference value :  1.75000e-04
 Reference value :  1.75000e-04
 Reference value :  1.75000e-04
 Reference value :  1.75000e-04
 Reference value :  1.75001e-04
 Reference value :  1.75001e-04
 Reference value :  1.75002e-04
 Reference value :  1.75002e-04
 Reference value :  1.75003e-04
 Reference value :  1.75004e-04
 Reference value :  1.75005e-04
 Reference value :  1.75006e-04
 Reference value :  1.75006e-04
 Reference value :  1.75007e-04
 Reference value :  1.75008e-04
 Reference value :  1.75009e-04
 Reference value :  1.75010e-04
 Reference value :  1.75011e-04
 Reference value :  1.75013e-04
 Reference value :  1.75015e-04
 Reference value :  1.75017e-04
 Reference value :  1.75019e-04
 Reference value :  1.75021e-04
 Reference value :  1.75023e-04
 Reference value :  1.75025e-04
 Reference value :  1.75027e-04
 Reference value :  1.75029e-04
 Reference value :  1.75031e-04
 Reference value :  1.75032e-04
 Reference value :  1.75034e-04
 Reference value :  1.75037e-04
 Reference value :  1.75040e-04
 Reference value :  1.75044e-04
 Reference value :  1.75050e-04
 Reference value :  1.75060e-04
 Reference value :  1.75069e-04
 Reference value :  1.75078e-04
 Reference value :  1.75087e-04
 Reference value :  1.75101e-04
 Reference value :  1.75116e-04
 Reference value :  1.75126e-04
 Reference value :  1.75136e-04
 Reference value :  1.75150e-04
 Reference value :  1.75165e-04
 Reference value :  1.75181e-04
 Reference value :  1.75200e-04
 Reference value :  1.75236e-04
 Reference value :  1.75250e-04
 Reference value :  1.75250e-04
 Reference value :  1.75250e-04
 Reference value :  1.75250e-04
 Reference value :  1.75250e-04
 Reference value :  1.75250e-04
 Reference value :  1.75250e-04
 Reference value :  1.75250e-04
 Reference value :  1.75250e-04
 Reference value :  1.75250e-04
 Reference value :  1.75250e-04
 Reference value :  1.75250e-04
 Reference value :  1.75250e-04
 Reference value :  1.75250e-04
 Reference value :  1.75251e-04
 Reference value :  1.75251e-04
 Reference value :  1.75251e-04
 Reference value :  1.75252e-04
 Reference value :  1.75252e-04
 Reference value :  1.75253e-04
 Reference value :  1.75254e-04
 Reference value :  1.75255e-04
 Reference value :  1.75256e-04
 Reference value :  1.75257e-04
 Reference value :  1.75257e-04
 Reference value :  1.75258e-04
 Reference value :  1.75259e-04
 Reference value :  1.75261e-04
 Reference value :  1.75263e-04
 Reference value :  1.75266e-04
 Reference value :  1.75271e-04
 Reference value :  1.75279e-04
 Reference value :  1.75296e-04
 Reference value :  1.75331e-04
 Reference value :  1.75399e-04
 Reference value :  1.75500e-04
 Reference value :  1.75500e-04
 Reference value :  1.75500e-04
 Reference value :  1.75500e-04
 Reference value :  1.75500e-04
 Reference value :  1.75500e-04
 Reference value :  1.75500e-04
 Reference value :  1.75500e-04
 Reference value :  1.75500e-04
 Reference value :  1.75500e-04
 Reference value :  1.75500e-04
 Reference value :  1.75500e-04
 Reference value :  1.75500e-04
 Reference value :  1.75500e-04
 Reference value :  1.75501e-04
 Reference value :  1.75501e-04
 Reference value :  1.75502e-04
 Reference value :  1.75502e-04
 Reference value :  1.75503e-04
 Reference value :  1.75504e-04
 Reference value :  1.75505e-04
 Reference value :  1.75506e-04
 Reference value :  1.75507e-04
 Reference value :  1.75508e-04
 Reference value :  1.75509e-04
 Reference value :  1.75511e-04
 Reference value :  1.75512e-04
 Reference value :  1.75514e-04
 Reference value :  1.75515e-04
 Reference value :  1.75517e-04
 Reference value :  1.75518e-04
 Reference value :  1.75522e-04
 Reference value :  1.75527e-04
 Reference value :  1.75536e-04
 Reference value :  1.75555e-04
 Reference value :  1.75588e-04
 Reference value :  1.75655e-04
 Reference value :  1.75750e-04
 Reference value :  1.75750e-04
 Reference value :  1.75750e-04
 Reference value :  1.75750e-04
 Reference value :  1.75750e-04
 Reference value :  1.75750e-04
 Reference value :  1.75750e-04
 Reference value :  1.75750e-04
 Reference value :  1.75750e-04
 Reference value :  1.75750e-04
 Reference value :  1.75750e-04
 Reference value :  1.75750e-04
 Reference value :  1.75750e-04
 Reference value :  1.75750e-04
 Reference value :  1.75751e-04
 Reference value :  1.75751e-04
 Reference value :  1.75751e-04
 Reference value :  1.75752e-04
 Reference value :  1.75752e-04
 Reference value :  1.75753e-04
 Reference value :  1.75754e-04
 Reference value :  1.75755e-04
 Reference value :  1.75756e-04
 Reference value :  1.75756e-04
 Reference value :  1.75757e-04
 Reference value :  1.75758e-04
 Reference value :  1.75759e-04
 Reference value :  1.75761e-04
 Reference value :  1.75762e-04
 Reference value :  1.75765e-04
 Reference value :  1.75769e-04
 Reference value :  1.75776e-04
 Reference value :  1.75791e-04
 Reference value :  1.75820e-04
 Reference value :  1.75878e-04
 Reference value :  1.75993e-04
 Reference value :  1.76000e-04
 Reference value :  1.76000e-04
 Reference value :  1.76000e-04
 Reference value :  1.76000e-04
 Reference value :  1.76000e-04
 Reference value :  1.76000e-04
 Reference value :  1.76000e-04
 Reference value :  1.76000e-04
 Reference value :  1.76000e-04
 Reference value :  1.76000e-04
 Reference value :  1.76000e-04
 Reference value :  1.76000e-04
 Reference value :  1.76000e-04
 Reference value :  1.76000e-04
 Reference value :  1.76001e-04
 Reference value :  1.76001e-04
 Reference value :  1.76002e-04
 Reference value :  1.76002e-04
 Reference value :  1.76003e-04
 Reference value :  1.76004e-04
 Reference value :  1.76005e-04
 Reference value :  1.76006e-04
 Reference value :  1.76007e-04
 Reference value :  1.76008e-04
 Reference value :  1.76009e-04
 Reference value :  1.76010e-04
 Reference value :  1.76011e-04
 Reference value :  1.76013e-04
 Reference value :  1.76015e-04
 Reference value :  1.76019e-04
 Reference value :  1.76024e-04
 Reference value :  1.76027e-04
 Reference value :  1.76030e-04
 Reference value :  1.76032e-04
 Reference value :  1.76035e-04
 Reference value :  1.76038e-04
 Reference value :  1.76041e-04
 Reference value :  1.76044e-04
 Reference value :  1.76050e-04
 Reference value :  1.76057e-04
 Reference value :  1.76067e-04
 Reference value :  1.76082e-04
 Reference value :  1.76098e-04
 Reference value :  1.76112e-04
 Reference value :  1.76126e-04
 Reference value :  1.76141e-04
 Reference value :  1.76156e-04
 Reference value :  1.76170e-04
 Reference value :  1.76187e-04
 Reference value :  1.76205e-04
 Reference value :  1.76235e-04
 Reference value :  1.76250e-04
 Reference value :  1.76250e-04
 Reference value :  1.76250e-04
 Reference value :  1.76250e-04
 Reference value :  1.76250e-04
 Reference value :  1.76250e-04
 Reference value :  1.76250e-04
 Reference value :  1.76250e-04
 Reference value :  1.76250e-04
 Reference value :  1.76250e-04
 Reference value :  1.76250e-04
 Reference value :  1.76250e-04
 Reference value :  1.76250e-04
 Reference value :  1.76250e-04
 Reference value :  1.76251e-04
 Reference value :  1.76251e-04
 Reference value :  1.76251e-04
 Reference value :  1.76252e-04
 Reference value :  1.76252e-04
 Reference value :  1.76253e-04
 Reference value :  1.76254e-04
 Reference value :  1.76255e-04
 Reference value :  1.76256e-04
 Reference value :  1.76257e-04
 Reference value :  1.76258e-04
 Reference value :  1.76259e-04
 Reference value :  1.76260e-04
 Reference value :  1.76262e-04
 Reference value :  1.76264e-04
 Reference value :  1.76268e-04
 Reference value :  1.76274e-04
 Reference value :  1.76285e-04
 Reference value :  1.76305e-04
 Reference value :  1.76345e-04
 Reference value :  1.76425e-04
 Reference value :  1.76500e-04
 Reference value :  1.76500e-04
 Reference value :  1.76500e-04
 Reference value :  1.76500e-04
 Reference value :  1.76500e-04
 Reference value :  1.76500e-04
 Reference value :  1.76500e-04
 Reference value :  1.76500e-04
 Reference value :  1.76500e-04
 Reference value :  1.76500e-04
 Reference value :  1.76500e-04
 Reference value :  1.76500e-04
 Reference value :  1.76500e-04
 Reference value :  1.76500e-04
 Reference value :  1.76501e-04
 Reference value :  1.76501e-04
 Reference value :  1.76502e-04
 Reference value :  1.76502e-04
 Reference value :  1.76503e-04
 Reference value :  1.76504e-04
 Reference value :  1.76505e-04
 Reference value :  1.76506e-04
 Reference value :  1.76507e-04
 Reference value :  1.76508e-04
 Reference value :  1.76509e-04
 Reference value :  1.76511e-04
 Reference value :  1.76513e-04
 Reference value :  1.76514e-04
 Reference value :  1.76516e-04
 Reference value :  1.76519e-04
 Reference value :  1.76521e-04
 Reference value :  1.76525e-04
 Reference value :  1.76531e-04
 Reference value :  1.76540e-04
 Reference value :  1.76556e-04
 Reference value :  1.76584e-04
 Reference value :  1.76632e-04
 Reference value :  1.76720e-04
 Reference value :  1.76750e-04
 Reference value :  1.76750e-04
 Reference value :  1.76750e-04
 Reference value :  1.76750e-04
 Reference value :  1.76750e-04
 Reference value :  1.76750e-04
 Reference value :  1.76750e-04
 Reference value :  1.76750e-04
 Reference value :  1.76750e-04
 Reference value :  1.76750e-04
 Reference value :  1.76750e-04
 Reference value :  1.76750e-04
 Reference value :  1.76750e-04
 Reference value :  1.76750e-04
 Reference value :  1.76751e-04
 Reference value :  1.76751e-04
 Reference value :  1.76751e-04
 Reference value :  1.76752e-04
 Reference value :  1.76752e-04
 Reference value :  1.76753e-04
 Reference value :  1.76754e-04
 Reference value :  1.76755e-04
 Reference value :  1.76756e-04
 Reference value :  1.76757e-04
 Reference value :  1.76758e-04
 Reference value :  1.76759e-04
 Reference value :  1.76760e-04
 Reference value :  1.76761e-04
 Reference value :  1.76762e-04
 Reference value :  1.76764e-04
 Reference value :  1.76765e-04
 Reference value :  1.76768e-04
 Reference value :  1.76770e-04
 Reference value :  1.76774e-04
 Reference value :  1.76781e-04
 Reference value :  1.76794e-04
 Reference value :  1.76815e-04
 Reference value :  1.76856e-04
 Reference value :  1.76939e-04
 Reference value :  1.77000e-04
 Reference value :  1.77000e-04
 Reference value :  1.77000e-04
 Reference value :  1.77000e-04
 Reference value :  1.77000e-04
 Reference value :  1.77000e-04
 Reference value :  1.77000e-04
 Reference value :  1.77000e-04
 Reference value :  1.77000e-04
 Reference value :  1.77000e-04
 Reference value :  1.77000e-04
 Reference value :  1.77000e-04
 Reference value :  1.77000e-04
 Reference value :  1.77000e-04
 Reference value :  1.77001e-04
 Reference value :  1.77001e-04
 Reference value :  1.77002e-04
 Reference value :  1.77002e-04
 Reference value :  1.77003e-04
 Reference value :  1.77004e-04
 Reference value :  1.77005e-04
 Reference value :  1.77006e-04
 Reference value :  1.77007e-04
 Reference value :  1.77007e-04
 Reference value :  1.77008e-04
 Reference value :  1.77009e-04
 Reference value :  1.77010e-04
 Reference value :  1.77011e-04
 Reference value :  1.77012e-04
 Reference value :  1.77015e-04
 Reference value :  1.77018e-04
 Reference value :  1.77020e-04
 Reference value :  1.77022e-04
 Reference value :  1.77024e-04
 Reference value :  1.77026e-04
 Reference value :  1.77028e-04
 Reference value :  1.77029e-04
 Reference value :  1.77030e-04
 Reference value :  1.77032e-04
 Reference value :  1.77034e-04
 Reference value :  1.77036e-04
 Reference value :  1.77039e-04
 Reference value :  1.77042e-04
 Reference value :  1.77048e-04
 Reference value :  1.77057e-04
 Reference value :  1.77073e-04
 Reference value :  1.77094e-04
 Reference value :  1.77136e-04
 Reference value :  1.77215e-04
 Reference value :  1.77250e-04
 Reference value :  1.77250e-04
 Reference value :  1.77250e-04
 Reference value :  1.77250e-04
 Reference value :  1.77250e-04
 Reference value :  1.77250e-04
 Reference value :  1.77250e-04
 Reference value :  1.77250e-04
 Reference value :  1.77250e-04
 Reference value :  1.77250e-04
 Reference value :  1.77250e-04
 Reference value :  1.77250e-04
 Reference value :  1.77250e-04
 Reference value :  1.77250e-04
 Reference value :  1.77251e-04
 Reference value :  1.77251e-04
 Reference value :  1.77251e-04
 Reference value :  1.77252e-04
 Reference value :  1.77252e-04
 Reference value :  1.77253e-04
 Reference value :  1.77254e-04
 Reference value :  1.77255e-04
 Reference value :  1.77256e-04
 Reference value :  1.77257e-04
 Reference value :  1.77258e-04
 Reference value :  1.77259e-04
 Reference value :  1.77260e-04
 Reference value :  1.77262e-04
 Reference value :  1.77264e-04
 Reference value :  1.77268e-04
 Reference value :  1.77274e-04
 Reference value :  1.77285e-04
 Reference value :  1.77306e-04
 Reference value :  1.77346e-04
 Reference value :  1.77425e-04
 Reference value :  1.77500e-04
 Reference value :  1.77500e-04
 Reference value :  1.77500e-04
 Reference value :  1.77500e-04
 Reference value :  1.77500e-04
 Reference value :  1.77500e-04
 Reference value :  1.77500e-04
 Reference value :  1.77500e-04
 Reference value :  1.77500e-04
 Reference value :  1.77500e-04
 Reference value :  1.77500e-04
 Reference value :  1.77500e-04
 Reference value :  1.77500e-04
 Reference value :  1.77500e-04
 Reference value :  1.77501e-04
 Reference value :  1.77501e-04
 Reference value :  1.77502e-04
 Reference value :  1.77502e-04
 Reference value :  1.77503e-04
 Reference value :  1.77504e-04
 Reference value :  1.77505e-04
 Reference value :  1.77506e-04
 Reference value :  1.77507e-04
 Reference value :  1.77508e-04
 Reference value :  1.77509e-04
 Reference value :  1.77511e-04
 Reference value :  1.77513e-04
 Reference value :  1.77515e-04
 Reference value :  1.77516e-04
 Reference value :  1.77519e-04
 Reference value :  1.77521e-04
 Reference value :  1.77525e-04
 Reference value :  1.77530e-04
 Reference value :  1.77539e-04
 Reference value :  1.77553e-04
 Reference value :  1.77578e-04
 Reference value :  1.77622e-04
 Reference value :  1.77709e-04
 Reference value :  1.77750e-04
 Reference value :  1.77750e-04
 Reference value :  1.77750e-04
 Reference value :  1.77750e-04
 Reference value :  1.77750e-04
 Reference value :  1.77750e-04
 Reference value :  1.77750e-04
 Reference value :  1.77750e-04
 Reference value :  1.77750e-04
 Reference value :  1.77750e-04
 Reference value :  1.77750e-04
 Reference value :  1.77750e-04
 Reference value :  1.77750e-04
 Reference value :  1.77750e-04
 Reference value :  1.77751e-04
 Reference value :  1.77751e-04
 Reference value :  1.77751e-04
 Reference value :  1.77752e-04
 Reference value :  1.77752e-04
 Reference value :  1.77753e-04
 Reference value :  1.77754e-04
 Reference value :  1.77755e-04
 Reference value :  1.77756e-04
 Reference value :  1.77757e-04
 Reference value :  1.77758e-04
 Reference value :  1.77759e-04
 Reference value :  1.77760e-04
 Reference value :  1.77761e-04
 Reference value :  1.77762e-04
 Reference value :  1.77763e-04
 Reference value :  1.77765e-04
 Reference value :  1.77767e-04
 Reference value :  1.77770e-04
 Reference value :  1.77774e-04
 Reference value :  1.77781e-04
 Reference value :  1.77795e-04
 Reference value :  1.77819e-04
 Reference value :  1.77864e-04
 Reference value :  1.77948e-04
 Reference value :  1.78000e-04
 Reference value :  1.78000e-04
 Reference value :  1.78000e-04
 Reference value :  1.78000e-04
 Reference value :  1.78000e-04
 Reference value :  1.78000e-04
 Reference value :  1.78000e-04
 Reference value :  1.78000e-04
 Reference value :  1.78000e-04
 Reference value :  1.78000e-04
 Reference value :  1.78000e-04
 Reference value :  1.78000e-04
 Reference value :  1.78000e-04
 Reference value :  1.78000e-04
 Reference value :  1.78001e-04
 Reference value :  1.78001e-04
 Reference value :  1.78002e-04
 Reference value :  1.78002e-04
 Reference value :  1.78003e-04
 Reference value :  1.78004e-04
 Reference value :  1.78005e-04
 Reference value :  1.78006e-04
 Reference value :  1.78007e-04
 Reference value :  1.78007e-04
 Reference value :  1.78008e-04
 Reference value :  1.78009e-04
 Reference value :  1.78010e-04
 Reference value :  1.78012e-04
 Reference value :  1.78013e-04
 Reference value :  1.78014e-04
 Reference value :  1.78016e-04
 Reference value :  1.78017e-04
 Reference value :  1.78019e-04
 Reference value :  1.78020e-04
 Reference value :  1.78022e-04
 Reference value :  1.78024e-04
 Reference value :  1.78025e-04
 Reference value :  1.78026e-04
 Reference value :  1.78028e-04
 Reference value :  1.78031e-04
 Reference value :  1.78036e-04
 Reference value :  1.78045e-04
 Reference value :  1.78055e-04
 Reference value :  1.78073e-04
 Reference value :  1.78094e-04
 Reference value :  1.78126e-04
 Reference value :  1.78158e-04
 Reference value :  1.78181e-04
 Reference value :  1.78202e-04
 Reference value :  1.78230e-04
 Reference value :  1.78250e-04
 Reference value :  1.78250e-04
 Reference value :  1.78250e-04
 Reference value :  1.78250e-04
 Reference value :  1.78250e-04
 Reference value :  1.78250e-04
 Reference value :  1.78250e-04
 Reference value :  1.78250e-04
 Reference value :  1.78250e-04
 Reference value :  1.78250e-04
 Reference value :  1.78250e-04
 Reference value :  1.78250e-04
 Reference value :  1.78250e-04
 Reference value :  1.78250e-04
 Reference value :  1.78251e-04
 Reference value :  1.78251e-04
 Reference value :  1.78251e-04
 Reference value :  1.78252e-04
 Reference value :  1.78253e-04
 Reference value :  1.78253e-04
 Reference value :  1.78254e-04
 Reference value :  1.78255e-04
 Reference value :  1.78257e-04
 Reference value :  1.78258e-04
 Reference value :  1.78260e-04
 Reference value :  1.78262e-04
 Reference value :  1.78264e-04
 Reference value :  1.78268e-04
 Reference value :  1.78273e-04
 Reference value :  1.78282e-04
 Reference value :  1.78296e-04
 Reference value :  1.78324e-04
 Reference value :  1.78380e-04
 Reference value :  1.78483e-04
 Reference value :  1.78500e-04
No. of Data Rows : 28824
ngspice-44 done
