
Note: Compatibility modes selected: hs a


Circuit: ** sch_path: /home/ece/cace/sar-adc-using-sky130-pdk/runs/run_2025-09-13_01-21-28/parameters/dnl/run_2/sar_output_dnl.sch

option SCALE: Scale is set to 1e-06 for instance and model parameters
option SCALE: Scale is set to 1e-06 for instance and model parameters
option SCALE: Scale is set to 1e-06 for instance and model parameters
option SCALE: Scale is set to 1e-06 for instance and model parameters
Doing analysis at TEMP = 27.000000 and TNOM = 27.000000

Using KLU as Direct Linear Solver
Operating point simulation skipped by 'uic',
  now using transient initial conditions.
 Reference value :  1.00000e-12
 Reference value :  1.17822e-12
 Reference value :  2.09741e-12
 Reference value :  1.31765e-11
 Reference value :  1.00000e-10
 Reference value :  1.70903e-10
 Reference value :  9.27356e-10
 Reference value :  1.81121e-09
 Reference value :  5.04524e-09
 Reference value :  7.29433e-09
 Reference value :  8.61791e-09
 Reference value :  1.01471e-08
 Reference value :  1.16216e-08
 Reference value :  1.60610e-08
 Reference value :  2.31452e-08
 Reference value :  3.77105e-08
 Reference value :  6.67622e-08
 Reference value :  1.30522e-07
 Reference value :  2.50110e-07
 Reference value :  2.50200e-07
 Reference value :  2.50223e-07
 Reference value :  2.50311e-07
 Reference value :  2.50680e-07
 Reference value :  2.51696e-07
 Reference value :  2.53256e-07
 Reference value :  2.54259e-07
 Reference value :  2.55483e-07
 Reference value :  2.58747e-07
 Reference value :  2.98004e-07
 Reference value :  5.00030e-07
 Reference value :  5.00156e-07
 Reference value :  5.00338e-07
 Reference value :  5.00827e-07
 Reference value :  5.01575e-07
 Reference value :  5.02907e-07
 Reference value :  5.04757e-07
 Reference value :  5.06612e-07
 Reference value :  5.09008e-07
 Reference value :  5.11637e-07
 Reference value :  5.16583e-07
 Reference value :  5.55019e-07
 Reference value :  7.50100e-07
 Reference value :  7.50200e-07
 Reference value :  7.50448e-07
 Reference value :  7.51397e-07
 Reference value :  7.52994e-07
 Reference value :  7.53976e-07
 Reference value :  7.55035e-07
 Reference value :  7.56554e-07
 Reference value :  7.63369e-07
 Reference value :  8.53119e-07
 Reference value :  1.00001e-06
 Reference value :  1.00007e-06
 Reference value :  1.00012e-06
 Reference value :  1.00052e-06
 Reference value :  1.00119e-06
 Reference value :  1.00158e-06
 Reference value :  1.00289e-06
 Reference value :  1.00396e-06
 Reference value :  1.00500e-06
 Reference value :  1.00632e-06
 Reference value :  1.00996e-06
 Reference value :  1.01223e-06
 Reference value :  1.01525e-06
 Reference value :  1.01916e-06
 Reference value :  1.04994e-06
 Reference value :  1.25010e-06
 Reference value :  1.25020e-06
 Reference value :  1.25045e-06
 Reference value :  1.25140e-06
 Reference value :  1.25346e-06
 Reference value :  1.25468e-06
 Reference value :  1.25758e-06
 Reference value :  1.28971e-06
 Reference value :  1.50003e-06
 Reference value :  1.50012e-06
 Reference value :  1.50052e-06
 Reference value :  1.50158e-06
 Reference value :  1.50289e-06
 Reference value :  1.50399e-06
 Reference value :  1.50552e-06
 Reference value :  1.50689e-06
 Reference value :  1.50864e-06
 Reference value :  1.51250e-06
 Reference value :  1.54794e-06
 Reference value :  1.75011e-06
 Reference value :  1.75020e-06
 Reference value :  1.75026e-06
 Reference value :  1.75045e-06
 Reference value :  1.75098e-06
 Reference value :  1.75140e-06
 Reference value :  1.75230e-06
 Reference value :  1.75345e-06
 Reference value :  1.75449e-06
 Reference value :  1.75580e-06
 Reference value :  1.76031e-06
 Reference value :  1.78272e-06
 Reference value :  1.96047e-06
 Reference value :  2.00003e-06
 Reference value :  2.00011e-06
 Reference value :  2.00083e-06
 Reference value :  2.00242e-06
 Reference value :  2.00341e-06
 Reference value :  2.00500e-06
 Reference value :  2.00846e-06
 Reference value :  2.01223e-06
 Reference value :  2.01525e-06
 Reference value :  2.02399e-06
 Reference value :  2.19760e-06
 Reference value :  2.25017e-06
 Reference value :  2.25026e-06
 Reference value :  2.25098e-06
 Reference value :  2.25230e-06
 Reference value :  2.25345e-06
 Reference value :  2.25599e-06
 Reference value :  2.26529e-06
 Reference value :  2.49002e-06
 Reference value :  2.50003e-06
 Reference value :  2.50016e-06
 Reference value :  2.50083e-06
 Reference value :  2.50201e-06
 Reference value :  2.50342e-06
 Reference value :  2.50552e-06
 Reference value :  2.50689e-06
 Reference value :  2.50956e-06
 Reference value :  2.54791e-06
 Reference value :  2.75013e-06
 Reference value :  2.75026e-06
 Reference value :  2.75140e-06
 Reference value :  2.75299e-06
 Reference value :  2.75397e-06
 Reference value :  2.75580e-06
 Reference value :  2.76995e-06
 Reference value :  3.00000e-06
 Reference value :  3.00010e-06
 Reference value :  3.00022e-06
 Reference value :  3.00083e-06
 Reference value :  3.00201e-06
 Reference value :  3.00289e-06
 Reference value :  3.00450e-06
 Reference value :  3.00631e-06
 Reference value :  3.00996e-06
 Reference value :  3.01223e-06
 Reference value :  3.01525e-06
 Reference value :  3.01914e-06
 Reference value :  3.03237e-06
 Reference value :  3.04092e-06
 Reference value :  3.05327e-06
 Reference value :  3.07052e-06
 Reference value :  3.12812e-06
 Reference value :  3.25010e-06
 Reference value :  3.25020e-06
 Reference value :  3.25045e-06
 Reference value :  3.25140e-06
 Reference value :  3.25299e-06
 Reference value :  3.25395e-06
 Reference value :  3.25595e-06
 Reference value :  3.26493e-06
 Reference value :  3.36880e-06
 Reference value :  3.50003e-06
 Reference value :  3.50012e-06
 Reference value :  3.50034e-06
 Reference value :  3.50083e-06
 Reference value :  3.50154e-06
 Reference value :  3.50235e-06
 Reference value :  3.50282e-06
 Reference value :  3.50388e-06
 Reference value :  3.50536e-06
 Reference value :  3.50598e-06
 Reference value :  3.50749e-06
 Reference value :  3.51029e-06
 Reference value :  3.52235e-06
 Reference value :  3.64618e-06
 Reference value :  3.75017e-06
 Reference value :  3.75026e-06
 Reference value :  3.75098e-06
 Reference value :  3.75229e-06
 Reference value :  3.75344e-06
 Reference value :  3.75448e-06
 Reference value :  3.75579e-06
 Reference value :  3.75751e-06
 Reference value :  3.75964e-06
 Reference value :  3.76742e-06
 Reference value :  3.82011e-06
 Reference value :  4.00001e-06
 Reference value :  4.00010e-06
 Reference value :  4.00016e-06
 Reference value :  4.00052e-06
 Reference value :  4.00119e-06
 Reference value :  4.00158e-06
 Reference value :  4.00242e-06
 Reference value :  4.00342e-06
 Reference value :  4.00440e-06
 Reference value :  4.00484e-06
 Reference value :  4.00664e-06
 Reference value :  4.00758e-06
 Reference value :  4.00928e-06
 Reference value :  4.01015e-06
 Reference value :  4.01191e-06
 Reference value :  4.01357e-06
 Reference value :  4.01635e-06
 Reference value :  4.02086e-06
 Reference value :  4.02666e-06
 Reference value :  4.03235e-06
 Reference value :  4.03623e-06
 Reference value :  4.05168e-06
 Reference value :  4.10278e-06
 Reference value :  4.25010e-06
 Reference value :  4.25017e-06
 Reference value :  4.25022e-06
 Reference value :  4.25045e-06
 Reference value :  4.25140e-06
 Reference value :  4.25229e-06
 Reference value :  4.25345e-06
 Reference value :  4.25461e-06
 Reference value :  4.25741e-06
 Reference value :  4.27238e-06
 Reference value :  4.48755e-06
 Reference value :  4.50007e-06
 Reference value :  4.50012e-06
 Reference value :  4.50022e-06
 Reference value :  4.50083e-06
 Reference value :  4.50201e-06
 Reference value :  4.50290e-06
 Reference value :  4.50474e-06
 Reference value :  4.50616e-06
 Reference value :  4.50771e-06
 Reference value :  4.50956e-06
 Reference value :  4.51249e-06
 Reference value :  4.52974e-06
 Reference value :  4.75011e-06
 Reference value :  4.75020e-06
 Reference value :  4.75026e-06
 Reference value :  4.75069e-06
 Reference value :  4.75140e-06
 Reference value :  4.75229e-06
 Reference value :  4.75344e-06
 Reference value :  4.75448e-06
 Reference value :  4.75579e-06
 Reference value :  4.76358e-06
 Reference value :  4.85698e-06
 Reference value :  5.00001e-06
 Reference value :  5.00010e-06
 Reference value :  5.00016e-06
 Reference value :  5.00052e-06
 Reference value :  5.00119e-06
 Reference value :  5.00158e-06
 Reference value :  5.00289e-06
 Reference value :  5.00396e-06
 Reference value :  5.00500e-06
 Reference value :  5.00632e-06
 Reference value :  5.00997e-06
 Reference value :  5.01223e-06
 Reference value :  5.01428e-06
 Reference value :  5.01524e-06
 Reference value :  5.01737e-06
 Reference value :  5.02074e-06
 Reference value :  5.02875e-06
 Reference value :  5.03372e-06
 Reference value :  5.03753e-06
 Reference value :  5.04576e-06
 Reference value :  5.05568e-06
 Reference value :  5.07351e-06
 Reference value :  5.18826e-06
 Reference value :  5.25017e-06
 Reference value :  5.25026e-06
 Reference value :  5.25069e-06
 Reference value :  5.25140e-06
 Reference value :  5.25299e-06
 Reference value :  5.25394e-06
 Reference value :  5.25595e-06
 Reference value :  5.26494e-06
 Reference value :  5.36891e-06
 Reference value :  5.50003e-06
 Reference value :  5.50011e-06
 Reference value :  5.50022e-06
 Reference value :  5.50083e-06
 Reference value :  5.50154e-06
 Reference value :  5.50282e-06
 Reference value :  5.50388e-06
 Reference value :  5.50536e-06
 Reference value :  5.50598e-06
 Reference value :  5.50749e-06
 Reference value :  5.51028e-06
 Reference value :  5.52223e-06
 Reference value :  5.64405e-06
 Reference value :  5.75013e-06
 Reference value :  5.75022e-06
 Reference value :  5.75069e-06
 Reference value :  5.75140e-06
 Reference value :  5.75229e-06
 Reference value :  5.75344e-06
 Reference value :  5.75448e-06
 Reference value :  5.75579e-06
 Reference value :  5.75836e-06
 Reference value :  5.76738e-06
 Reference value :  5.87950e-06
 Reference value :  6.00001e-06
 Reference value :  6.00010e-06
 Reference value :  6.00016e-06
 Reference value :  6.00034e-06
 Reference value :  6.00083e-06
 Reference value :  6.00158e-06
 Reference value :  6.00242e-06
 Reference value :  6.00290e-06
 Reference value :  6.00390e-06
 Reference value :  6.00484e-06
 Reference value :  6.00664e-06
 Reference value :  6.00758e-06
 Reference value :  6.00933e-06
 Reference value :  6.01016e-06
 Reference value :  6.01188e-06
 Reference value :  6.01349e-06
 Reference value :  6.01525e-06
 Reference value :  6.01862e-06
 Reference value :  6.01977e-06
 Reference value :  6.02237e-06
 Reference value :  6.02795e-06
 Reference value :  6.03153e-06
 Reference value :  6.04116e-06
 Reference value :  6.09493e-06
 Reference value :  6.25011e-06
 Reference value :  6.25020e-06
 Reference value :  6.25032e-06
 Reference value :  6.25098e-06
 Reference value :  6.25140e-06
 Reference value :  6.25299e-06
 Reference value :  6.25398e-06
 Reference value :  6.25523e-06
 Reference value :  6.25887e-06
 Reference value :  6.28658e-06
 Reference value :  6.50000e-06
 Reference value :  6.50010e-06
 Reference value :  6.50022e-06
 Reference value :  6.50083e-06
 Reference value :  6.50158e-06
 Reference value :  6.50290e-06
 Reference value :  6.50399e-06
 Reference value :  6.50616e-06
 Reference value :  6.50771e-06
 Reference value :  6.50955e-06
 Reference value :  6.51549e-06
 Reference value :  6.58199e-06
 Reference value :  6.75013e-06
 Reference value :  6.75021e-06
 Reference value :  6.75032e-06
 Reference value :  6.75098e-06
 Reference value :  6.75186e-06
 Reference value :  6.75299e-06
 Reference value :  6.75397e-06
 Reference value :  6.75448e-06
 Reference value :  6.75579e-06
 Reference value :  6.76981e-06
 Reference value :  7.00000e-06
 Reference value :  7.00010e-06
 Reference value :  7.00022e-06
 Reference value :  7.00083e-06
 Reference value :  7.00158e-06
 Reference value :  7.00289e-06
 Reference value :  7.00450e-06
 Reference value :  7.00554e-06
 Reference value :  7.00847e-06
 Reference value :  7.01120e-06
 Reference value :  7.01322e-06
 Reference value :  7.01524e-06
 Reference value :  7.01910e-06
 Reference value :  7.02717e-06
 Reference value :  7.03106e-06
 Reference value :  7.04030e-06
 Reference value :  7.05559e-06
 Reference value :  7.14833e-06
 Reference value :  7.18614e-06
 Reference value :  7.25011e-06
 Reference value :  7.25022e-06
 Reference value :  7.25069e-06
 Reference value :  7.25140e-06
 Reference value :  7.25299e-06
 Reference value :  7.25397e-06
 Reference value :  7.25606e-06
 Reference value :  7.26570e-06
 Reference value :  7.34992e-06
 Reference value :  7.50001e-06
 Reference value :  7.50011e-06
 Reference value :  7.50022e-06
 Reference value :  7.50083e-06
 Reference value :  7.50201e-06
 Reference value :  7.50289e-06
 Reference value :  7.50399e-06
 Reference value :  7.50616e-06
 Reference value :  7.50771e-06
 Reference value :  7.50955e-06
 Reference value :  7.51547e-06
 Reference value :  7.54648e-06
 Reference value :  7.75011e-06
 Reference value :  7.75020e-06
 Reference value :  7.75032e-06
 Reference value :  7.75098e-06
 Reference value :  7.75186e-06
 Reference value :  7.75299e-06
 Reference value :  7.75344e-06
 Reference value :  7.75447e-06
 Reference value :  7.75579e-06
 Reference value :  7.76027e-06
 Reference value :  7.78231e-06
 Reference value :  8.00000e-06
 Reference value :  8.00007e-06
 Reference value :  8.00012e-06
 Reference value :  8.00034e-06
 Reference value :  8.00119e-06
 Reference value :  8.00201e-06
 Reference value :  8.00289e-06
 Reference value :  8.00451e-06
 Reference value :  8.00639e-06
 Reference value :  8.00885e-06
 Reference value :  8.02263e-06
 Reference value :  8.23209e-06
 Reference value :  8.25017e-06
 Reference value :  8.25032e-06
 Reference value :  8.25139e-06
 Reference value :  8.25452e-06
 Reference value :  8.25767e-06
 Reference value :  8.32168e-06
 Reference value :  8.50000e-06
 Reference value :  8.50001e-06
 Reference value :  8.50010e-06
 Reference value :  8.50014e-06
 Reference value :  8.50044e-06
 Reference value :  8.50158e-06
 Reference value :  8.50243e-06
 Reference value :  8.50292e-06
 Reference value :  8.50401e-06
 Reference value :  8.50446e-06
 Reference value :  8.50554e-06
 Reference value :  8.51197e-06
 Reference value :  8.52239e-06
 Reference value :  8.52626e-06
 Reference value :  8.53175e-06
 Reference value :  8.53796e-06
 Reference value :  8.54916e-06
 Reference value :  8.58019e-06
 Reference value :  8.75010e-06
 Reference value :  8.75020e-06
 Reference value :  8.75045e-06
 Reference value :  8.75139e-06
 Reference value :  8.75229e-06
 Reference value :  8.75343e-06
 Reference value :  8.75454e-06
 Reference value :  8.75728e-06
 Reference value :  8.77135e-06
 Reference value :  9.00000e-06
 Reference value :  9.00010e-06
 Reference value :  9.00034e-06
 Reference value :  9.00158e-06
 Reference value :  9.00289e-06
 Reference value :  9.00397e-06
 Reference value :  9.00655e-06
 Reference value :  9.00902e-06
 Reference value :  9.01151e-06
 Reference value :  9.01412e-06
 Reference value :  9.01604e-06
 Reference value :  9.02656e-06
 Reference value :  9.08051e-06
 Reference value :  9.25013e-06
 Reference value :  9.25022e-06
 Reference value :  9.25045e-06
 Reference value :  9.25098e-06
 Reference value :  9.25139e-06
 Reference value :  9.25229e-06
 Reference value :  9.25298e-06
 Reference value :  9.25344e-06
 Reference value :  9.25447e-06
 Reference value :  9.25578e-06
 Reference value :  9.26024e-06
 Reference value :  9.28212e-06
 Reference value :  9.45567e-06
 Reference value :  9.50003e-06
 Reference value :  9.50011e-06
 Reference value :  9.50022e-06
 Reference value :  9.50083e-06
 Reference value :  9.50158e-06
 Reference value :  9.50242e-06
 Reference value :  9.50289e-06
 Reference value :  9.50450e-06
 Reference value :  9.50554e-06
 Reference value :  9.50845e-06
 Reference value :  9.51119e-06
 Reference value :  9.51223e-06
 Reference value :  9.51429e-06
 Reference value :  9.51525e-06
 Reference value :  9.51739e-06
 Reference value :  9.52392e-06
 Reference value :  9.54940e-06
 Reference value :  9.61811e-06
 Reference value :  9.75011e-06
 Reference value :  9.75020e-06
 Reference value :  9.75032e-06
 Reference value :  9.75098e-06
 Reference value :  9.75186e-06
 Reference value :  9.75299e-06
 Reference value :  9.75398e-06
 Reference value :  9.75523e-06
 Reference value :  9.75888e-06
 Reference value :  9.78667e-06
 Reference value :  1.00000e-05
 Reference value :  1.00001e-05
 Reference value :  1.00002e-05
 Reference value :  1.00008e-05
 Reference value :  1.00024e-05
 Reference value :  1.00047e-05
 Reference value :  1.00062e-05
 Reference value :  1.00086e-05
 Reference value :  1.00205e-05
 Reference value :  1.02501e-05
 Reference value :  1.02502e-05
 Reference value :  1.02510e-05
 Reference value :  1.02523e-05
 Reference value :  1.02534e-05
 Reference value :  1.02550e-05
 Reference value :  1.02603e-05
 Reference value :  1.04573e-05
 Reference value :  1.05001e-05
 Reference value :  1.05002e-05
 Reference value :  1.05012e-05
 Reference value :  1.05024e-05
 Reference value :  1.05040e-05
 Reference value :  1.05055e-05
 Reference value :  1.05100e-05
 Reference value :  1.05122e-05
 Reference value :  1.05152e-05
 Reference value :  1.05239e-05
 Reference value :  1.06177e-05
 Reference value :  1.07501e-05
 Reference value :  1.07502e-05
 Reference value :  1.07504e-05
 Reference value :  1.07510e-05
 Reference value :  1.07519e-05
 Reference value :  1.07534e-05
 Reference value :  1.07546e-05
 Reference value :  1.07574e-05
 Reference value :  1.07724e-05
 Reference value :  1.09872e-05
 Reference value :  1.10001e-05
 Reference value :  1.10002e-05
 Reference value :  1.10008e-05
 Reference value :  1.10016e-05
 Reference value :  1.10024e-05
 Reference value :  1.10034e-05
 Reference value :  1.10047e-05
 Reference value :  1.10055e-05
 Reference value :  1.10062e-05
 Reference value :  1.10077e-05
 Reference value :  1.10096e-05
 Reference value :  1.10155e-05
 Reference value :  1.10469e-05
 Reference value :  1.12501e-05
 Reference value :  1.12502e-05
 Reference value :  1.12502e-05
 Reference value :  1.12503e-05
 Reference value :  1.12507e-05
 Reference value :  1.12514e-05
 Reference value :  1.12519e-05
 Reference value :  1.12530e-05
 Reference value :  1.12534e-05
 Reference value :  1.12545e-05
 Reference value :  1.12558e-05
 Reference value :  1.12699e-05
 Reference value :  1.15000e-05
 Reference value :  1.15001e-05
 Reference value :  1.15003e-05
 Reference value :  1.15012e-05
 Reference value :  1.15020e-05
 Reference value :  1.15029e-05
 Reference value :  1.15045e-05
 Reference value :  1.15055e-05
 Reference value :  1.15100e-05
 Reference value :  1.15122e-05
 Reference value :  1.15143e-05
 Reference value :  1.15163e-05
 Reference value :  1.15240e-05
 Reference value :  1.15325e-05
 Reference value :  1.15413e-05
 Reference value :  1.15541e-05
 Reference value :  1.15710e-05
 Reference value :  1.16297e-05
 Reference value :  1.17501e-05
 Reference value :  1.17503e-05
 Reference value :  1.17510e-05
 Reference value :  1.17519e-05
 Reference value :  1.17530e-05
 Reference value :  1.17539e-05
 Reference value :  1.17559e-05
 Reference value :  1.17615e-05
 Reference value :  1.17856e-05
 Reference value :  1.20000e-05
 Reference value :  1.20001e-05
 Reference value :  1.20001e-05
 Reference value :  1.20005e-05
 Reference value :  1.20012e-05
 Reference value :  1.20019e-05
 Reference value :  1.20033e-05
 Reference value :  1.20060e-05
 Reference value :  1.20084e-05
 Reference value :  1.20114e-05
 Reference value :  1.20316e-05
 Reference value :  1.22501e-05
 Reference value :  1.22502e-05
 Reference value :  1.22504e-05
 Reference value :  1.22514e-05
 Reference value :  1.22530e-05
 Reference value :  1.22540e-05
 Reference value :  1.22558e-05
 Reference value :  1.22596e-05
 Reference value :  1.23199e-05
 Reference value :  1.25000e-05
 Reference value :  1.25002e-05
 Reference value :  1.25008e-05
 Reference value :  1.25024e-05
 Reference value :  1.25039e-05
 Reference value :  1.25059e-05
 Reference value :  1.25084e-05
 Reference value :  1.25102e-05
 Reference value :  1.25119e-05
 Reference value :  1.25145e-05
 Reference value :  1.25177e-05
 Reference value :  1.25282e-05
 Reference value :  1.25336e-05
 Reference value :  1.25450e-05
 Reference value :  1.25722e-05
 Reference value :  1.26205e-05
 Reference value :  1.27501e-05
 Reference value :  1.27502e-05
 Reference value :  1.27502e-05
 Reference value :  1.27503e-05
 Reference value :  1.27507e-05
 Reference value :  1.27514e-05
 Reference value :  1.27523e-05
 Reference value :  1.27530e-05
 Reference value :  1.27535e-05
 Reference value :  1.27540e-05
 Reference value :  1.27546e-05
 Reference value :  1.27560e-05
 Reference value :  1.27616e-05
 Reference value :  1.27867e-05
 Reference value :  1.30000e-05
 Reference value :  1.30001e-05
 Reference value :  1.30003e-05
 Reference value :  1.30012e-05
 Reference value :  1.30020e-05
 Reference value :  1.30029e-05
 Reference value :  1.30040e-05
 Reference value :  1.30055e-05
 Reference value :  1.30062e-05
 Reference value :  1.30077e-05
 Reference value :  1.30096e-05
 Reference value :  1.30155e-05
 Reference value :  1.30296e-05
 Reference value :  1.30825e-05
 Reference value :  1.32501e-05
 Reference value :  1.32502e-05
 Reference value :  1.32503e-05
 Reference value :  1.32510e-05
 Reference value :  1.32519e-05
 Reference value :  1.32534e-05
 Reference value :  1.32545e-05
 Reference value :  1.32558e-05
 Reference value :  1.32698e-05
 Reference value :  1.35000e-05
 Reference value :  1.35001e-05
 Reference value :  1.35002e-05
 Reference value :  1.35008e-05
 Reference value :  1.35016e-05
 Reference value :  1.35024e-05
 Reference value :  1.35034e-05
 Reference value :  1.35050e-05
 Reference value :  1.35071e-05
 Reference value :  1.35112e-05
 Reference value :  1.35132e-05
 Reference value :  1.35152e-05
 Reference value :  1.35191e-05
 Reference value :  1.35288e-05
 Reference value :  1.35340e-05
 Reference value :  1.35419e-05
 Reference value :  1.35508e-05
 Reference value :  1.35620e-05
 Reference value :  1.36059e-05
 Reference value :  1.37501e-05
 Reference value :  1.37502e-05
 Reference value :  1.37502e-05
 Reference value :  1.37504e-05
 Reference value :  1.37514e-05
 Reference value :  1.37530e-05
 Reference value :  1.37539e-05
 Reference value :  1.37559e-05
 Reference value :  1.37649e-05
 Reference value :  1.38688e-05
 Reference value :  1.40000e-05
 Reference value :  1.40001e-05
 Reference value :  1.40005e-05
 Reference value :  1.40012e-05
 Reference value :  1.40023e-05
 Reference value :  1.40033e-05
 Reference value :  1.40054e-05
 Reference value :  1.40066e-05
 Reference value :  1.40084e-05
 Reference value :  1.40103e-05
 Reference value :  1.40221e-05
 Reference value :  1.40792e-05
 Reference value :  1.42501e-05
 Reference value :  1.42502e-05
 Reference value :  1.42502e-05
 Reference value :  1.42504e-05
 Reference value :  1.42510e-05
 Reference value :  1.42519e-05
 Reference value :  1.42530e-05
 Reference value :  1.42534e-05
 Reference value :  1.42545e-05
 Reference value :  1.42558e-05
 Reference value :  1.42584e-05
 Reference value :  1.42636e-05
 Reference value :  1.42898e-05
 Reference value :  1.44990e-05
 Reference value :  1.45000e-05
 Reference value :  1.45001e-05
 Reference value :  1.45002e-05
 Reference value :  1.45005e-05
 Reference value :  1.45016e-05
 Reference value :  1.45029e-05
 Reference value :  1.45039e-05
 Reference value :  1.45048e-05
 Reference value :  1.45066e-05
 Reference value :  1.45085e-05
 Reference value :  1.45102e-05
 Reference value :  1.45119e-05
 Reference value :  1.45136e-05
 Reference value :  1.45153e-05
 Reference value :  1.45174e-05
 Reference value :  1.45191e-05
 Reference value :  1.45227e-05
 Reference value :  1.45358e-05
 Reference value :  1.46040e-05
 Reference value :  1.47501e-05
 Reference value :  1.47502e-05
 Reference value :  1.47503e-05
 Reference value :  1.47507e-05
 Reference value :  1.47519e-05
 Reference value :  1.47530e-05
 Reference value :  1.47540e-05
 Reference value :  1.47560e-05
 Reference value :  1.47652e-05
 Reference value :  1.49871e-05
 Reference value :  1.50001e-05
 Reference value :  1.50001e-05
 Reference value :  1.50003e-05
 Reference value :  1.50012e-05
 Reference value :  1.50020e-05
 Reference value :  1.50029e-05
 Reference value :  1.50040e-05
 Reference value :  1.50055e-05
 Reference value :  1.50062e-05
 Reference value :  1.50077e-05
 Reference value :  1.50109e-05
 Reference value :  1.50295e-05
 Reference value :  1.52501e-05
 Reference value :  1.52502e-05
 Reference value :  1.52502e-05
 Reference value :  1.52504e-05
 Reference value :  1.52514e-05
 Reference value :  1.52523e-05
 Reference value :  1.52534e-05
 Reference value :  1.52545e-05
 Reference value :  1.52558e-05
 Reference value :  1.52698e-05
 Reference value :  1.55000e-05
 Reference value :  1.55008e-05
 Reference value :  1.55023e-05
 Reference value :  1.55030e-05
 Reference value :  1.55038e-05
 Reference value :  1.55045e-05
 Reference value :  1.55056e-05
 Reference value :  1.55093e-05
 Reference value :  1.55120e-05
 Reference value :  1.55130e-05
 Reference value :  1.55149e-05
 Reference value :  1.55170e-05
 Reference value :  1.55236e-05
 Reference value :  1.55336e-05
 Reference value :  1.55438e-05
 Reference value :  1.55547e-05
 Reference value :  1.56010e-05
 Reference value :  1.56262e-05
 Reference value :  1.56696e-05
 Reference value :  1.57501e-05
 Reference value :  1.57502e-05
 Reference value :  1.57503e-05
 Reference value :  1.57510e-05
 Reference value :  1.57523e-05
 Reference value :  1.57534e-05
 Reference value :  1.57545e-05
 Reference value :  1.57572e-05
 Reference value :  1.57709e-05
 Reference value :  1.59631e-05
 Reference value :  1.60001e-05
 Reference value :  1.60001e-05
 Reference value :  1.60003e-05
 Reference value :  1.60012e-05
 Reference value :  1.60020e-05
 Reference value :  1.60034e-05
 Reference value :  1.60055e-05
 Reference value :  1.60069e-05
 Reference value :  1.60086e-05
 Reference value :  1.60125e-05
 Reference value :  1.60292e-05
 Reference value :  1.62501e-05
 Reference value :  1.62502e-05
 Reference value :  1.62503e-05
 Reference value :  1.62507e-05
 Reference value :  1.62514e-05
 Reference value :  1.62530e-05
 Reference value :  1.62540e-05
 Reference value :  1.62550e-05
 Reference value :  1.62566e-05
 Reference value :  1.62699e-05
 Reference value :  1.64591e-05
 Reference value :  1.65001e-05
 Reference value :  1.65002e-05
 Reference value :  1.65008e-05
 Reference value :  1.65016e-05
 Reference value :  1.65029e-05
 Reference value :  1.65045e-05
 Reference value :  1.65056e-05
 Reference value :  1.65079e-05
 Reference value :  1.65118e-05
 Reference value :  1.65646e-05
 Reference value :  1.67501e-05
 Reference value :  1.67502e-05
 Reference value :  1.67503e-05
 Reference value :  1.67510e-05
 Reference value :  1.67519e-05
 Reference value :  1.67536e-05
 Reference value :  1.67553e-05
 Reference value :  1.67592e-05
 Reference value :  1.67749e-05
 Reference value :  1.70000e-05
 Reference value :  1.70000e-05
 Reference value :  1.70000e-05
 Reference value :  1.70000e-05
 Reference value :  1.70001e-05
 Reference value :  1.70002e-05
 Reference value :  1.70007e-05
 Reference value :  1.70016e-05
 Reference value :  1.70024e-05
 Reference value :  1.70035e-05
 Reference value :  1.70045e-05
 Reference value :  1.70055e-05
 Reference value :  1.70120e-05
 Reference value :  1.70224e-05
 Reference value :  1.70263e-05
 Reference value :  1.70292e-05
 Reference value :  1.70317e-05
 Reference value :  1.70358e-05
 Reference value :  1.70425e-05
 Reference value :  1.70596e-05
 Reference value :  1.71595e-05
 Reference value :  1.72502e-05
 Reference value :  1.72503e-05
 Reference value :  1.72514e-05
 Reference value :  1.72534e-05
 Reference value :  1.72559e-05
 Reference value :  1.72850e-05
 Reference value :  1.75000e-05
 Reference value :  1.75001e-05
 Reference value :  1.75002e-05
 Reference value :  1.75008e-05
 Reference value :  1.75020e-05
 Reference value :  1.75034e-05
 Reference value :  1.75065e-05
 Reference value :  1.75089e-05
 Reference value :  1.75113e-05
 Reference value :  1.75139e-05
 Reference value :  1.75207e-05
 Reference value :  1.76451e-05
 Reference value :  1.77502e-05
 Reference value :  1.77502e-05
 Reference value :  1.77504e-05
 Reference value :  1.77510e-05
 Reference value :  1.77514e-05
 Reference value :  1.77523e-05
 Reference value :  1.77534e-05
 Reference value :  1.77545e-05
 Reference value :  1.77558e-05
 Reference value :  1.77635e-05
 Reference value :  1.78071e-05
 Reference value :  1.80000e-05
 Reference value :  1.80007e-05
 Reference value :  1.80030e-05
 Reference value :  1.80044e-05
 Reference value :  1.80051e-05
 Reference value :  1.80062e-05
 Reference value :  1.80081e-05
 Reference value :  1.80096e-05
 Reference value :  1.80109e-05
 Reference value :  1.80131e-05
 Reference value :  1.80139e-05
 Reference value :  1.80148e-05
 Reference value :  1.80182e-05
 Reference value :  1.80338e-05
 Reference value :  1.81117e-05
 Reference value :  1.82501e-05
 Reference value :  1.82502e-05
 Reference value :  1.82503e-05
 Reference value :  1.82507e-05
 Reference value :  1.82514e-05
 Reference value :  1.82529e-05
 Reference value :  1.82545e-05
 Reference value :  1.82613e-05
 Reference value :  1.83594e-05
 Reference value :  1.85001e-05
 Reference value :  1.85002e-05
 Reference value :  1.85008e-05
 Reference value :  1.85020e-05
 Reference value :  1.85034e-05
 Reference value :  1.85055e-05
 Reference value :  1.85068e-05
 Reference value :  1.85094e-05
 Reference value :  1.85185e-05
 Reference value :  1.86948e-05
 Reference value :  1.87502e-05
 Reference value :  1.87503e-05
 Reference value :  1.87510e-05
 Reference value :  1.87519e-05
 Reference value :  1.87534e-05
 Reference value :  1.87545e-05
 Reference value :  1.87566e-05
 Reference value :  1.87822e-05
 Reference value :  1.90000e-05
 Reference value :  1.90001e-05
 Reference value :  1.90003e-05
 Reference value :  1.90016e-05
 Reference value :  1.90029e-05
 Reference value :  1.90045e-05
 Reference value :  1.90055e-05
 Reference value :  1.90083e-05
 Reference value :  1.90111e-05
 Reference value :  1.90122e-05
 Reference value :  1.90143e-05
 Reference value :  1.90163e-05
 Reference value :  1.90191e-05
 Reference value :  1.90286e-05
 Reference value :  1.91151e-05
 Reference value :  1.92501e-05
 Reference value :  1.92502e-05
 Reference value :  1.92503e-05
 Reference value :  1.92510e-05
 Reference value :  1.92519e-05
 Reference value :  1.92530e-05
 Reference value :  1.92540e-05
 Reference value :  1.92560e-05
 Reference value :  1.92655e-05
 Reference value :  1.93772e-05
 Reference value :  1.95001e-05
 Reference value :  1.95001e-05
 Reference value :  1.95004e-05
 Reference value :  1.95019e-05
 Reference value :  1.95033e-05
 Reference value :  1.95058e-05
 Reference value :  1.95081e-05
 Reference value :  1.95109e-05
 Reference value :  1.95696e-05
 Reference value :  1.97502e-05
 Reference value :  1.97504e-05
 Reference value :  1.97519e-05
 Reference value :  1.97534e-05
 Reference value :  1.97550e-05
 Reference value :  1.97602e-05
 Reference value :  2.00000e-05
 Reference value :  2.00001e-05
 Reference value :  2.00003e-05
 Reference value :  2.00012e-05
 Reference value :  2.00029e-05
 Reference value :  2.00050e-05
 Reference value :  2.00099e-05
 Reference value :  2.00122e-05
 Reference value :  2.00153e-05
 Reference value :  2.00208e-05
 Reference value :  2.00326e-05
 Reference value :  2.00453e-05
 Reference value :  2.00707e-05
 Reference value :  2.02480e-05
 Reference value :  2.02502e-05
 Reference value :  2.02510e-05
 Reference value :  2.02523e-05
 Reference value :  2.02534e-05
 Reference value :  2.02552e-05
 Reference value :  2.02587e-05
 Reference value :  2.02715e-05
 Reference value :  2.04739e-05
 Reference value :  2.05004e-05
 Reference value :  2.05018e-05
 Reference value :  2.05028e-05
 Reference value :  2.05046e-05
 Reference value :  2.05059e-05
 Reference value :  2.05092e-05
 Reference value :  2.05220e-05
 Reference value :  2.06971e-05
 Reference value :  2.07502e-05
 Reference value :  2.07504e-05
 Reference value :  2.07514e-05
 Reference value :  2.07530e-05
 Reference value :  2.07545e-05
 Reference value :  2.07566e-05
 Reference value :  2.07635e-05
 Reference value :  2.09858e-05
 Reference value :  2.10001e-05
 Reference value :  2.10003e-05
 Reference value :  2.10016e-05
 Reference value :  2.10029e-05
 Reference value :  2.10044e-05
 Reference value :  2.10048e-05
 Reference value :  2.10059e-05
 Reference value :  2.10076e-05
 Reference value :  2.10093e-05
 Reference value :  2.10102e-05
 Reference value :  2.10119e-05
 Reference value :  2.10145e-05
 Reference value :  2.10177e-05
 Reference value :  2.10274e-05
 Reference value :  2.10304e-05
 Reference value :  2.10347e-05
 Reference value :  2.10392e-05
 Reference value :  2.10533e-05
 Reference value :  2.10895e-05
 Reference value :  2.11525e-05
 Reference value :  2.12501e-05
 Reference value :  2.12502e-05
 Reference value :  2.12503e-05
 Reference value :  2.12510e-05
 Reference value :  2.12519e-05
 Reference value :  2.12530e-05
 Reference value :  2.12540e-05
 Reference value :  2.12552e-05
 Reference value :  2.12589e-05
 Reference value :  2.12723e-05
 Reference value :  2.13725e-05
 Reference value :  2.15000e-05
 Reference value :  2.15001e-05
 Reference value :  2.15002e-05
 Reference value :  2.15005e-05
 Reference value :  2.15012e-05
 Reference value :  2.15016e-05
 Reference value :  2.15024e-05
 Reference value :  2.15029e-05
 Reference value :  2.15040e-05
 Reference value :  2.15055e-05
 Reference value :  2.15069e-05
 Reference value :  2.15087e-05
 Reference value :  2.15155e-05
 Reference value :  2.15825e-05
 Reference value :  2.17501e-05
 Reference value :  2.17502e-05
 Reference value :  2.17507e-05
 Reference value :  2.17514e-05
 Reference value :  2.17530e-05
 Reference value :  2.17540e-05
 Reference value :  2.17550e-05
 Reference value :  2.17566e-05
 Reference value :  2.17698e-05
 Reference value :  2.19557e-05
 Reference value :  2.20008e-05
 Reference value :  2.20030e-05
 Reference value :  2.20045e-05
 Reference value :  2.20056e-05
 Reference value :  2.20080e-05
 Reference value :  2.20093e-05
 Reference value :  2.20120e-05
 Reference value :  2.20139e-05
 Reference value :  2.20159e-05
 Reference value :  2.20182e-05
 Reference value :  2.20259e-05
 Reference value :  2.20312e-05
 Reference value :  2.20415e-05
 Reference value :  2.20518e-05
 Reference value :  2.20648e-05
 Reference value :  2.20917e-05
 Reference value :  2.21760e-05
 Reference value :  2.22501e-05
 Reference value :  2.22502e-05
 Reference value :  2.22502e-05
 Reference value :  2.22504e-05
 Reference value :  2.22510e-05
 Reference value :  2.22519e-05
 Reference value :  2.22530e-05
 Reference value :  2.22534e-05
 Reference value :  2.22552e-05
 Reference value :  2.22587e-05
 Reference value :  2.22715e-05
 Reference value :  2.24723e-05
 Reference value :  2.25000e-05
 Reference value :  2.25001e-05
 Reference value :  2.25002e-05
 Reference value :  2.25003e-05
 Reference value :  2.25008e-05
 Reference value :  2.25015e-05
 Reference value :  2.25023e-05
 Reference value :  2.25028e-05
 Reference value :  2.25039e-05
 Reference value :  2.25054e-05
 Reference value :  2.25060e-05
 Reference value :  2.25075e-05
 Reference value :  2.25092e-05
 Reference value :  2.25103e-05
 Reference value :  2.25167e-05
 Reference value :  2.25474e-05
 Reference value :  2.26426e-05
 Reference value :  2.27501e-05
 Reference value :  2.27503e-05
 Reference value :  2.27514e-05
 Reference value :  2.27530e-05
 Reference value :  2.27545e-05
 Reference value :  2.27566e-05
 Reference value :  2.27596e-05
 Reference value :  2.27900e-05
 Reference value :  2.30018e-05
 Reference value :  2.30055e-05
 Reference value :  2.30074e-05
 Reference value :  2.30108e-05
 Reference value :  2.30119e-05
 Reference value :  2.30142e-05
 Reference value :  2.30154e-05
 Reference value :  2.30162e-05
 Reference value :  2.30183e-05
 Reference value :  2.30235e-05
 Reference value :  2.30301e-05
 Reference value :  2.30455e-05
 Reference value :  2.31416e-05
 Reference value :  2.32501e-05
 Reference value :  2.32502e-05
 Reference value :  2.32503e-05
 Reference value :  2.32507e-05
 Reference value :  2.32514e-05
 Reference value :  2.32522e-05
 Reference value :  2.32532e-05
 Reference value :  2.32549e-05
 Reference value :  2.32565e-05
 Reference value :  2.32684e-05
 Reference value :  2.33851e-05
 Reference value :  2.35000e-05
 Reference value :  2.35001e-05
 Reference value :  2.35002e-05
 Reference value :  2.35005e-05
 Reference value :  2.35016e-05
 Reference value :  2.35029e-05
 Reference value :  2.35047e-05
 Reference value :  2.35062e-05
 Reference value :  2.35077e-05
 Reference value :  2.35125e-05
 Reference value :  2.35826e-05
 Reference value :  2.37501e-05
 Reference value :  2.37502e-05
 Reference value :  2.37507e-05
 Reference value :  2.37514e-05
 Reference value :  2.37530e-05
 Reference value :  2.37540e-05
 Reference value :  2.37558e-05
 Reference value :  2.37699e-05
 Reference value :  2.40000e-05
 Reference value :  2.40001e-05
 Reference value :  2.40003e-05
 Reference value :  2.40012e-05
 Reference value :  2.40024e-05
 Reference value :  2.40040e-05
 Reference value :  2.40050e-05
 Reference value :  2.40071e-05
 Reference value :  2.40100e-05
 Reference value :  2.40122e-05
 Reference value :  2.40152e-05
 Reference value :  2.40207e-05
 Reference value :  2.40324e-05
 Reference value :  2.40477e-05
 Reference value :  2.40626e-05
 Reference value :  2.40749e-05
 Reference value :  2.41115e-05
 Reference value :  2.41934e-05
 Reference value :  2.42502e-05
 Reference value :  2.42502e-05
 Reference value :  2.42504e-05
 Reference value :  2.42514e-05
 Reference value :  2.42530e-05
 Reference value :  2.42546e-05
 Reference value :  2.42589e-05
 Reference value :  2.43153e-05
 Reference value :  2.45000e-05
 Reference value :  2.45001e-05
 Reference value :  2.45005e-05
 Reference value :  2.45016e-05
 Reference value :  2.45029e-05
 Reference value :  2.45047e-05
 Reference value :  2.45062e-05
 Reference value :  2.45077e-05
 Reference value :  2.45109e-05
 Reference value :  2.45294e-05
 Reference value :  2.47501e-05
 Reference value :  2.47502e-05
 Reference value :  2.47507e-05
 Reference value :  2.47519e-05
 Reference value :  2.47534e-05
 Reference value :  2.47550e-05
 Reference value :  2.47603e-05
 Reference value :  2.48071e-05
 Reference value :  2.50000e-05
 Reference value :  2.50001e-05
 Reference value :  2.50001e-05
 Reference value :  2.50002e-05
 Reference value :  2.50005e-05
 Reference value :  2.50012e-05
 Reference value :  2.50020e-05
 Reference value :  2.50029e-05
 Reference value :  2.50040e-05
 Reference value :  2.50050e-05
 Reference value :  2.50064e-05
 Reference value :  2.50088e-05
 Reference value :  2.50366e-05
 Reference value :  2.52501e-05
 Reference value :  2.52502e-05
 Reference value :  2.52504e-05
 Reference value :  2.52514e-05
 Reference value :  2.52523e-05
 Reference value :  2.52536e-05
 Reference value :  2.52553e-05
 Reference value :  2.52592e-05
 Reference value :  2.53217e-05
 Reference value :  2.55000e-05
 Reference value :  2.55000e-05
 Reference value :  2.55000e-05
 Reference value :  2.55001e-05
 Reference value :  2.55002e-05
 Reference value :  2.55007e-05
 Reference value :  2.55020e-05
 Reference value :  2.55029e-05
 Reference value :  2.55040e-05
 Reference value :  2.55045e-05
 Reference value :  2.55055e-05
 Reference value :  2.55074e-05
 Reference value :  2.55173e-05
 Reference value :  2.55230e-05
 Reference value :  2.55270e-05
 Reference value :  2.55300e-05
 Reference value :  2.55333e-05
 Reference value :  2.55357e-05
 Reference value :  2.55401e-05
 Reference value :  2.55452e-05
 Reference value :  2.55524e-05
 Reference value :  2.55749e-05
 Reference value :  2.56394e-05
 Reference value :  2.57421e-05
 Reference value :  2.57501e-05
 Reference value :  2.57501e-05
 Reference value :  2.57502e-05
 Reference value :  2.57502e-05
 Reference value :  2.57504e-05
 Reference value :  2.57510e-05
 Reference value :  2.57514e-05
 Reference value :  2.57523e-05
 Reference value :  2.57534e-05
 Reference value :  2.57545e-05
 Reference value :  2.57559e-05
 Reference value :  2.57614e-05
 Reference value :  2.57847e-05
 Reference value :  2.59708e-05
 Reference value :  2.60001e-05
 Reference value :  2.60002e-05
 Reference value :  2.60005e-05
 Reference value :  2.60016e-05
 Reference value :  2.60029e-05
 Reference value :  2.60047e-05
 Reference value :  2.60066e-05
 Reference value :  2.60101e-05
 Reference value :  2.60128e-05
 Reference value :  2.60216e-05
 Reference value :  2.62501e-05
 Reference value :  2.62502e-05
 Reference value :  2.62504e-05
 Reference value :  2.62514e-05
 Reference value :  2.62530e-05
 Reference value :  2.62540e-05
 Reference value :  2.62558e-05
 Reference value :  2.62602e-05
 Reference value :  2.63069e-05
 Reference value :  2.65008e-05
 Reference value :  2.65030e-05
 Reference value :  2.65044e-05
 Reference value :  2.65056e-05
 Reference value :  2.65095e-05
 Reference value :  2.65121e-05
 Reference value :  2.65139e-05
 Reference value :  2.65159e-05
 Reference value :  2.65200e-05
 Reference value :  2.65455e-05
 Reference value :  2.66822e-05
 Reference value :  2.67501e-05
 Reference value :  2.67502e-05
 Reference value :  2.67503e-05
 Reference value :  2.67510e-05
 Reference value :  2.67519e-05
 Reference value :  2.67530e-05
 Reference value :  2.67539e-05
 Reference value :  2.67551e-05
 Reference value :  2.67612e-05
 Reference value :  2.68093e-05
 Reference value :  2.70000e-05
 Reference value :  2.70001e-05
 Reference value :  2.70002e-05
 Reference value :  2.70008e-05
 Reference value :  2.70016e-05
 Reference value :  2.70029e-05
 Reference value :  2.70047e-05
 Reference value :  2.70062e-05
 Reference value :  2.70077e-05
 Reference value :  2.70109e-05
 Reference value :  2.70294e-05
 Reference value :  2.71505e-05
 Reference value :  2.72501e-05
 Reference value :  2.72502e-05
 Reference value :  2.72503e-05
 Reference value :  2.72507e-05
 Reference value :  2.72514e-05
 Reference value :  2.72523e-05
 Reference value :  2.72534e-05
 Reference value :  2.72545e-05
 Reference value :  2.72558e-05
 Reference value :  2.72603e-05
 Reference value :  2.73081e-05
 Reference value :  2.75000e-05
 Reference value :  2.75001e-05
 Reference value :  2.75001e-05
 Reference value :  2.75003e-05
 Reference value :  2.75012e-05
 Reference value :  2.75020e-05
 Reference value :  2.75029e-05
 Reference value :  2.75040e-05
 Reference value :  2.75050e-05
 Reference value :  2.75071e-05
 Reference value :  2.75100e-05
 Reference value :  2.75112e-05
 Reference value :  2.75132e-05
 Reference value :  2.75153e-05
 Reference value :  2.75174e-05
 Reference value :  2.75238e-05
 Reference value :  2.75491e-05
 Reference value :  2.76965e-05
 Reference value :  2.77501e-05
 Reference value :  2.77502e-05
 Reference value :  2.77503e-05
 Reference value :  2.77504e-05
 Reference value :  2.77510e-05
 Reference value :  2.77514e-05
 Reference value :  2.77523e-05
 Reference value :  2.77534e-05
 Reference value :  2.77546e-05
 Reference value :  2.77560e-05
 Reference value :  2.77616e-05
 Reference value :  2.77868e-05
 Reference value :  2.79879e-05
 Reference value :  2.80002e-05
 Reference value :  2.80009e-05
 Reference value :  2.80014e-05
 Reference value :  2.80022e-05
 Reference value :  2.80027e-05
 Reference value :  2.80038e-05
 Reference value :  2.80051e-05
 Reference value :  2.80058e-05
 Reference value :  2.80073e-05
 Reference value :  2.80091e-05
 Reference value :  2.80112e-05
 Reference value :  2.80230e-05
 Reference value :  2.81106e-05
 Reference value :  2.82501e-05
 Reference value :  2.82502e-05
 Reference value :  2.82503e-05
 Reference value :  2.82504e-05
 Reference value :  2.82510e-05
 Reference value :  2.82519e-05
 Reference value :  2.82530e-05
 Reference value :  2.82534e-05
 Reference value :  2.82545e-05
 Reference value :  2.82558e-05
 Reference value :  2.82602e-05
 Reference value :  2.83052e-05
 Reference value :  2.85000e-05
 Reference value :  2.85001e-05
 Reference value :  2.85002e-05
 Reference value :  2.85005e-05
 Reference value :  2.85012e-05
 Reference value :  2.85020e-05
 Reference value :  2.85034e-05
 Reference value :  2.85055e-05
 Reference value :  2.85100e-05
 Reference value :  2.85122e-05
 Reference value :  2.85152e-05
 Reference value :  2.85192e-05
 Reference value :  2.85326e-05
 Reference value :  2.85420e-05
 Reference value :  2.85559e-05
 Reference value :  2.85982e-05
 Reference value :  2.86949e-05
 Reference value :  2.87501e-05
 Reference value :  2.87502e-05
 Reference value :  2.87503e-05
 Reference value :  2.87507e-05
 Reference value :  2.87514e-05
 Reference value :  2.87523e-05
 Reference value :  2.87534e-05
 Reference value :  2.87546e-05
 Reference value :  2.87573e-05
 Reference value :  2.87856e-05
 Reference value :  2.89790e-05
 Reference value :  2.90004e-05
 Reference value :  2.90015e-05
 Reference value :  2.90028e-05
 Reference value :  2.90048e-05
 Reference value :  2.90063e-05
 Reference value :  2.90078e-05
 Reference value :  2.90096e-05
 Reference value :  2.90162e-05
 Reference value :  2.90524e-05
 Reference value :  2.92501e-05
 Reference value :  2.92502e-05
 Reference value :  2.92503e-05
 Reference value :  2.92510e-05
 Reference value :  2.92519e-05
 Reference value :  2.92534e-05
 Reference value :  2.92545e-05
 Reference value :  2.92558e-05
 Reference value :  2.92583e-05
 Reference value :  2.92636e-05
 Reference value :  2.93192e-05
 Reference value :  2.95000e-05
 Reference value :  2.95001e-05
 Reference value :  2.95002e-05
 Reference value :  2.95005e-05
 Reference value :  2.95016e-05
 Reference value :  2.95024e-05
 Reference value :  2.95034e-05
 Reference value :  2.95039e-05
 Reference value :  2.95048e-05
 Reference value :  2.95059e-05
 Reference value :  2.95076e-05
 Reference value :  2.95084e-05
 Reference value :  2.95093e-05
 Reference value :  2.95102e-05
 Reference value :  2.95119e-05
 Reference value :  2.95136e-05
 Reference value :  2.95154e-05
 Reference value :  2.95164e-05
 Reference value :  2.95209e-05
 Reference value :  2.95300e-05
 Reference value :  2.95342e-05
 Reference value :  2.95430e-05
 Reference value :  2.95770e-05
 Reference value :  2.96070e-05
 Reference value :  2.97066e-05
 Reference value :  2.97501e-05
 Reference value :  2.97502e-05
 Reference value :  2.97503e-05
 Reference value :  2.97507e-05
 Reference value :  2.97514e-05
 Reference value :  2.97530e-05
 Reference value :  2.97540e-05
 Reference value :  2.97552e-05
 Reference value :  2.97589e-05
 Reference value :  2.97867e-05
 Reference value :  3.00000e-05
 Reference value :  3.00001e-05
 Reference value :  3.00002e-05
 Reference value :  3.00005e-05
 Reference value :  3.00016e-05
 Reference value :  3.00029e-05
 Reference value :  3.00047e-05
 Reference value :  3.00062e-05
 Reference value :  3.00087e-05
 Reference value :  3.00205e-05
 Reference value :  3.02501e-05
 Reference value :  3.02503e-05
 Reference value :  3.02510e-05
 Reference value :  3.02530e-05
 Reference value :  3.02545e-05
 Reference value :  3.02602e-05
 Reference value :  3.05000e-05
 Reference value :  3.05008e-05
 Reference value :  3.05031e-05
 Reference value :  3.05045e-05
 Reference value :  3.05051e-05
 Reference value :  3.05062e-05
 Reference value :  3.05081e-05
 Reference value :  3.05097e-05
 Reference value :  3.05109e-05
 Reference value :  3.05131e-05
 Reference value :  3.05149e-05
 Reference value :  3.05170e-05
 Reference value :  3.05222e-05
 Reference value :  3.05320e-05
 Reference value :  3.05434e-05
 Reference value :  3.05552e-05
 Reference value :  3.05677e-05
 Reference value :  3.06034e-05
 Reference value :  3.07501e-05
 Reference value :  3.07501e-05
 Reference value :  3.07502e-05
 Reference value :  3.07503e-05
 Reference value :  3.07504e-05
 Reference value :  3.07510e-05
 Reference value :  3.07514e-05
 Reference value :  3.07523e-05
 Reference value :  3.07534e-05
 Reference value :  3.07545e-05
 Reference value :  3.07573e-05
 Reference value :  3.07648e-05
 Reference value :  3.08112e-05
 Reference value :  3.09704e-05
 Reference value :  3.10000e-05
 Reference value :  3.10001e-05
 Reference value :  3.10001e-05
 Reference value :  3.10002e-05
 Reference value :  3.10005e-05
 Reference value :  3.10012e-05
 Reference value :  3.10015e-05
 Reference value :  3.10028e-05
 Reference value :  3.10046e-05
 Reference value :  3.10060e-05
 Reference value :  3.10084e-05
 Reference value :  3.10114e-05
 Reference value :  3.10481e-05
 Reference value :  3.12501e-05
 Reference value :  3.12502e-05
 Reference value :  3.12503e-05
 Reference value :  3.12510e-05
 Reference value :  3.12519e-05
 Reference value :  3.12534e-05
 Reference value :  3.12550e-05
 Reference value :  3.12575e-05
 Reference value :  3.12673e-05
 Reference value :  3.14163e-05
 Reference value :  3.14874e-05
 Reference value :  3.15001e-05
 Reference value :  3.15005e-05
 Reference value :  3.15020e-05
 Reference value :  3.15034e-05
 Reference value :  3.15049e-05
 Reference value :  3.15063e-05
 Reference value :  3.15085e-05
 Reference value :  3.15111e-05
 Reference value :  3.15131e-05
 Reference value :  3.15151e-05
 Reference value :  3.15205e-05
 Reference value :  3.15278e-05
 Reference value :  3.15323e-05
 Reference value :  3.15370e-05
 Reference value :  3.15489e-05
 Reference value :  3.15771e-05
 Reference value :  3.17501e-05
 Reference value :  3.17502e-05
 Reference value :  3.17510e-05
 Reference value :  3.17523e-05
 Reference value :  3.17534e-05
 Reference value :  3.17546e-05
 Reference value :  3.17573e-05
 Reference value :  3.17649e-05
 Reference value :  3.18688e-05
 Reference value :  3.20000e-05
 Reference value :  3.20001e-05
 Reference value :  3.20003e-05
 Reference value :  3.20008e-05
 Reference value :  3.20015e-05
 Reference value :  3.20023e-05
 Reference value :  3.20028e-05
 Reference value :  3.20039e-05
 Reference value :  3.20054e-05
 Reference value :  3.20060e-05
 Reference value :  3.20075e-05
 Reference value :  3.20103e-05
 Reference value :  3.20221e-05
 Reference value :  3.21424e-05
 Reference value :  3.22502e-05
 Reference value :  3.22503e-05
 Reference value :  3.22510e-05
 Reference value :  3.22523e-05
 Reference value :  3.22534e-05
 Reference value :  3.22550e-05
 Reference value :  3.22575e-05
 Reference value :  3.22636e-05
 Reference value :  3.23762e-05
 Reference value :  3.25000e-05
 Reference value :  3.25002e-05
 Reference value :  3.25008e-05
 Reference value :  3.25020e-05
 Reference value :  3.25034e-05
 Reference value :  3.25048e-05
 Reference value :  3.25076e-05
 Reference value :  3.25093e-05
 Reference value :  3.25111e-05
 Reference value :  3.25135e-05
 Reference value :  3.25172e-05
 Reference value :  3.25219e-05
 Reference value :  3.25522e-05
 Reference value :  3.27501e-05
 Reference value :  3.27502e-05
 Reference value :  3.27504e-05
 Reference value :  3.27514e-05
 Reference value :  3.27530e-05
 Reference value :  3.27540e-05
 Reference value :  3.27575e-05
 Reference value :  3.27874e-05
 Reference value :  3.30000e-05
 Reference value :  3.30001e-05
 Reference value :  3.30003e-05
 Reference value :  3.30012e-05
 Reference value :  3.30019e-05
 Reference value :  3.30028e-05
 Reference value :  3.30054e-05
 Reference value :  3.30075e-05
 Reference value :  3.30103e-05
 Reference value :  3.30316e-05
 Reference value :  3.32501e-05
 Reference value :  3.32502e-05
 Reference value :  3.32507e-05
 Reference value :  3.32519e-05
 Reference value :  3.32534e-05
 Reference value :  3.32545e-05
 Reference value :  3.32558e-05
 Reference value :  3.32583e-05
 Reference value :  3.32636e-05
 Reference value :  3.33757e-05
 Reference value :  3.35002e-05
 Reference value :  3.35006e-05
 Reference value :  3.35018e-05
 Reference value :  3.35026e-05
 Reference value :  3.35036e-05
 Reference value :  3.35046e-05
 Reference value :  3.35064e-05
 Reference value :  3.35085e-05
 Reference value :  3.35131e-05
 Reference value :  3.35320e-05
 Reference value :  3.35487e-05
 Reference value :  3.35877e-05
 Reference value :  3.37501e-05
 Reference value :  3.37502e-05
 Reference value :  3.37510e-05
 Reference value :  3.37523e-05
 Reference value :  3.37553e-05
 Reference value :  3.37618e-05
 Reference value :  3.40000e-05
 Reference value :  3.40000e-05
 Reference value :  3.40000e-05
 Reference value :  3.40001e-05
 Reference value :  3.40004e-05
 Reference value :  3.40016e-05
 Reference value :  3.40029e-05
 Reference value :  3.40045e-05
 Reference value :  3.40074e-05
 Reference value :  3.40224e-05
 Reference value :  3.40263e-05
 Reference value :  3.40317e-05
 Reference value :  3.40381e-05
 Reference value :  3.40546e-05
 Reference value :  3.41248e-05
 Reference value :  3.42501e-05
 Reference value :  3.42502e-05
 Reference value :  3.42510e-05
 Reference value :  3.42523e-05
 Reference value :  3.42534e-05
 Reference value :  3.42545e-05
 Reference value :  3.42573e-05
 Reference value :  3.42647e-05
 Reference value :  3.45000e-05
 Reference value :  3.45001e-05
 Reference value :  3.45002e-05
 Reference value :  3.45008e-05
 Reference value :  3.45016e-05
 Reference value :  3.45029e-05
 Reference value :  3.45040e-05
 Reference value :  3.45066e-05
 Reference value :  3.45090e-05
 Reference value :  3.45115e-05
 Reference value :  3.45141e-05
 Reference value :  3.45180e-05
 Reference value :  3.45361e-05
 Reference value :  3.47501e-05
 Reference value :  3.47502e-05
 Reference value :  3.47502e-05
 Reference value :  3.47503e-05
 Reference value :  3.47507e-05
 Reference value :  3.47514e-05
 Reference value :  3.47523e-05
 Reference value :  3.47534e-05
 Reference value :  3.47545e-05
 Reference value :  3.47566e-05
 Reference value :  3.47697e-05
 Reference value :  3.49559e-05
 Reference value :  3.50001e-05
 Reference value :  3.50002e-05
 Reference value :  3.50008e-05
 Reference value :  3.50016e-05
 Reference value :  3.50029e-05
 Reference value :  3.50045e-05
 Reference value :  3.50063e-05
 Reference value :  3.50100e-05
 Reference value :  3.50122e-05
 Reference value :  3.50152e-05
 Reference value :  3.50191e-05
 Reference value :  3.50287e-05
 Reference value :  3.50720e-05
 Reference value :  3.52501e-05
 Reference value :  3.52502e-05
 Reference value :  3.52502e-05
 Reference value :  3.52503e-05
 Reference value :  3.52507e-05
 Reference value :  3.52514e-05
 Reference value :  3.52523e-05
 Reference value :  3.52534e-05
 Reference value :  3.52546e-05
 Reference value :  3.52574e-05
 Reference value :  3.52652e-05
 Reference value :  3.52867e-05
 Reference value :  3.55000e-05
 Reference value :  3.55001e-05
 Reference value :  3.55001e-05
 Reference value :  3.55003e-05
 Reference value :  3.55012e-05
 Reference value :  3.55020e-05
 Reference value :  3.55029e-05
 Reference value :  3.55047e-05
 Reference value :  3.55062e-05
 Reference value :  3.55077e-05
 Reference value :  3.55096e-05
 Reference value :  3.55205e-05
 Reference value :  3.56516e-05
 Reference value :  3.57501e-05
 Reference value :  3.57502e-05
 Reference value :  3.57504e-05
 Reference value :  3.57510e-05
 Reference value :  3.57514e-05
 Reference value :  3.57530e-05
 Reference value :  3.57534e-05
 Reference value :  3.57545e-05
 Reference value :  3.57558e-05
 Reference value :  3.57603e-05
 Reference value :  3.57823e-05
 Reference value :  3.58573e-05
 Reference value :  3.60007e-05
 Reference value :  3.60029e-05
 Reference value :  3.60043e-05
 Reference value :  3.60055e-05
 Reference value :  3.60078e-05
 Reference value :  3.60092e-05
 Reference value :  3.60120e-05
 Reference value :  3.60139e-05
 Reference value :  3.60161e-05
 Reference value :  3.60205e-05
 Reference value :  3.60444e-05
 Reference value :  3.61846e-05
 Reference value :  3.62502e-05
 Reference value :  3.62503e-05
 Reference value :  3.62510e-05
 Reference value :  3.62519e-05
 Reference value :  3.62529e-05
 Reference value :  3.62539e-05
 Reference value :  3.62551e-05
 Reference value :  3.62610e-05
 Reference value :  3.63081e-05
 Reference value :  3.65000e-05
 Reference value :  3.65001e-05
 Reference value :  3.65003e-05
 Reference value :  3.65012e-05
 Reference value :  3.65020e-05
 Reference value :  3.65029e-05
 Reference value :  3.65047e-05
 Reference value :  3.65062e-05
 Reference value :  3.65077e-05
 Reference value :  3.65125e-05
 Reference value :  3.65794e-05
 Reference value :  3.67502e-05
 Reference value :  3.67503e-05
 Reference value :  3.67507e-05
 Reference value :  3.67514e-05
 Reference value :  3.67530e-05
 Reference value :  3.67540e-05
 Reference value :  3.67550e-05
 Reference value :  3.67582e-05
 Reference value :  3.68080e-05
 Reference value :  3.70000e-05
 Reference value :  3.70001e-05
 Reference value :  3.70003e-05
 Reference value :  3.70016e-05
 Reference value :  3.70029e-05
 Reference value :  3.70045e-05
 Reference value :  3.70055e-05
 Reference value :  3.70085e-05
 Reference value :  3.70112e-05
 Reference value :  3.70122e-05
 Reference value :  3.70143e-05
 Reference value :  3.70152e-05
 Reference value :  3.70174e-05
 Reference value :  3.70276e-05
 Reference value :  3.70328e-05
 Reference value :  3.70426e-05
 Reference value :  3.70519e-05
 Reference value :  3.70696e-05
 Reference value :  3.71025e-05
 Reference value :  3.72069e-05
 Reference value :  3.72502e-05
 Reference value :  3.72503e-05
 Reference value :  3.72510e-05
 Reference value :  3.72523e-05
 Reference value :  3.72534e-05
 Reference value :  3.72546e-05
 Reference value :  3.72559e-05
 Reference value :  3.72649e-05
 Reference value :  3.73685e-05
 Reference value :  3.75000e-05
 Reference value :  3.75001e-05
 Reference value :  3.75002e-05
 Reference value :  3.75008e-05
 Reference value :  3.75015e-05
 Reference value :  3.75023e-05
 Reference value :  3.75028e-05
 Reference value :  3.75039e-05
 Reference value :  3.75054e-05
 Reference value :  3.75060e-05
 Reference value :  3.75075e-05
 Reference value :  3.75092e-05
 Reference value :  3.75114e-05
 Reference value :  3.75221e-05
 Reference value :  3.75792e-05
 Reference value :  3.77501e-05
 Reference value :  3.77502e-05
 Reference value :  3.77503e-05
 Reference value :  3.77514e-05
 Reference value :  3.77530e-05
 Reference value :  3.77545e-05
 Reference value :  3.77566e-05
 Reference value :  3.77611e-05
 Reference value :  3.78199e-05
 Reference value :  3.80000e-05
 Reference value :  3.80002e-05
 Reference value :  3.80008e-05
 Reference value :  3.80020e-05
 Reference value :  3.80029e-05
 Reference value :  3.80039e-05
 Reference value :  3.80048e-05
 Reference value :  3.80066e-05
 Reference value :  3.80084e-05
 Reference value :  3.80102e-05
 Reference value :  3.80119e-05
 Reference value :  3.80136e-05
 Reference value :  3.80154e-05
 Reference value :  3.80177e-05
 Reference value :  3.80215e-05
 Reference value :  3.80269e-05
 Reference value :  3.80298e-05
 Reference value :  3.80320e-05
 Reference value :  3.80391e-05
 Reference value :  3.80576e-05
 Reference value :  3.80843e-05
 Reference value :  3.81428e-05
 Reference value :  3.82501e-05
 Reference value :  3.82501e-05
 Reference value :  3.82502e-05
 Reference value :  3.82502e-05
 Reference value :  3.82504e-05
 Reference value :  3.82514e-05
 Reference value :  3.82530e-05
 Reference value :  3.82540e-05
 Reference value :  3.82552e-05
 Reference value :  3.82589e-05
 Reference value :  3.82724e-05
 Reference value :  3.84874e-05
 Reference value :  3.85002e-05
 Reference value :  3.85009e-05
 Reference value :  3.85015e-05
 Reference value :  3.85023e-05
 Reference value :  3.85033e-05
 Reference value :  3.85053e-05
 Reference value :  3.85060e-05
 Reference value :  3.85074e-05
 Reference value :  3.85102e-05
 Reference value :  3.85326e-05
 Reference value :  3.87501e-05
 Reference value :  3.87502e-05
 Reference value :  3.87503e-05
 Reference value :  3.87510e-05
 Reference value :  3.87514e-05
 Reference value :  3.87523e-05
 Reference value :  3.87534e-05
 Reference value :  3.87545e-05
 Reference value :  3.87558e-05
 Reference value :  3.87602e-05
 Reference value :  3.87819e-05
 Reference value :  3.89536e-05
 Reference value :  3.90000e-05
 Reference value :  3.90001e-05
 Reference value :  3.90003e-05
 Reference value :  3.90012e-05
 Reference value :  3.90020e-05
 Reference value :  3.90029e-05
 Reference value :  3.90040e-05
 Reference value :  3.90050e-05
 Reference value :  3.90071e-05
 Reference value :  3.90100e-05
 Reference value :  3.90122e-05
 Reference value :  3.90143e-05
 Reference value :  3.90162e-05
 Reference value :  3.90191e-05
 Reference value :  3.90286e-05
 Reference value :  3.90332e-05
 Reference value :  3.90422e-05
 Reference value :  3.90516e-05
 Reference value :  3.90691e-05
 Reference value :  3.91135e-05
 Reference value :  3.92501e-05
 Reference value :  3.92502e-05
 Reference value :  3.92502e-05
 Reference value :  3.92504e-05
 Reference value :  3.92510e-05
 Reference value :  3.92514e-05
 Reference value :  3.92523e-05
 Reference value :  3.92534e-05
 Reference value :  3.92546e-05
 Reference value :  3.92573e-05
 Reference value :  3.92649e-05
 Reference value :  3.93688e-05
 Reference value :  3.94165e-05
 Reference value :  3.94515e-05
 Reference value :  3.95000e-05
 Reference value :  3.95001e-05
 Reference value :  3.95001e-05
 Reference value :  3.95002e-05
 Reference value :  3.95005e-05
 Reference value :  3.95012e-05
 Reference value :  3.95020e-05
 Reference value :  3.95029e-05
 Reference value :  3.95047e-05
 Reference value :  3.95062e-05
 Reference value :  3.95077e-05
 Reference value :  3.95095e-05
 Reference value :  3.95154e-05
 Reference value :  3.95777e-05
 Reference value :  3.97501e-05
 Reference value :  3.97502e-05
 Reference value :  3.97502e-05
 Reference value :  3.97504e-05
 Reference value :  3.97510e-05
 Reference value :  3.97514e-05
 Reference value :  3.97523e-05
 Reference value :  3.97534e-05
 Reference value :  3.97545e-05
 Reference value :  3.97558e-05
 Reference value :  3.97582e-05
 Reference value :  3.97698e-05
 Reference value :  3.98571e-05
 Reference value :  4.00000e-05
 Reference value :  4.00001e-05
 Reference value :  4.00002e-05
 Reference value :  4.00003e-05
 Reference value :  4.00012e-05
 Reference value :  4.00020e-05
 Reference value :  4.00029e-05
 Reference value :  4.00040e-05
 Reference value :  4.00055e-05
 Reference value :  4.00084e-05
 Reference value :  4.00112e-05
 Reference value :  4.00122e-05
 Reference value :  4.00143e-05
 Reference value :  4.00163e-05
 Reference value :  4.00208e-05
 Reference value :  4.00280e-05
 Reference value :  4.00310e-05
 Reference value :  4.00338e-05
 Reference value :  4.00397e-05
 Reference value :  4.00493e-05
 Reference value :  4.00621e-05
 Reference value :  4.00895e-05
 Reference value :  4.02501e-05
 Reference value :  4.02502e-05
 Reference value :  4.02502e-05
 Reference value :  4.02504e-05
 Reference value :  4.02514e-05
 Reference value :  4.02530e-05
 Reference value :  4.02539e-05
 Reference value :  4.02559e-05
 Reference value :  4.02649e-05
 Reference value :  4.03134e-05
 Reference value :  4.05000e-05
 Reference value :  4.05001e-05
 Reference value :  4.05001e-05
 Reference value :  4.05003e-05
 Reference value :  4.05008e-05
 Reference value :  4.05015e-05
 Reference value :  4.05028e-05
 Reference value :  4.05039e-05
 Reference value :  4.05054e-05
 Reference value :  4.05060e-05
 Reference value :  4.05075e-05
 Reference value :  4.05103e-05
 Reference value :  4.05474e-05
 Reference value :  4.07501e-05
 Reference value :  4.07503e-05
 Reference value :  4.07510e-05
 Reference value :  4.07523e-05
 Reference value :  4.07534e-05
 Reference value :  4.07550e-05
 Reference value :  4.07566e-05
 Reference value :  4.07596e-05
 Reference value :  4.07748e-05
 Reference value :  4.09983e-05
 Reference value :  4.10000e-05
 Reference value :  4.10002e-05
 Reference value :  4.10009e-05
 Reference value :  4.10016e-05
 Reference value :  4.10029e-05
 Reference value :  4.10039e-05
 Reference value :  4.10049e-05
 Reference value :  4.10079e-05
 Reference value :  4.10095e-05
 Reference value :  4.10103e-05
 Reference value :  4.10119e-05
 Reference value :  4.10142e-05
 Reference value :  4.10160e-05
 Reference value :  4.10183e-05
 Reference value :  4.10234e-05
 Reference value :  4.10300e-05
 Reference value :  4.10687e-05
 Reference value :  4.10877e-05
 Reference value :  4.11469e-05
 Reference value :  4.12501e-05
 Reference value :  4.12502e-05
 Reference value :  4.12502e-05
 Reference value :  4.12504e-05
 Reference value :  4.12514e-05
 Reference value :  4.12523e-05
 Reference value :  4.12534e-05
 Reference value :  4.12553e-05
 Reference value :  4.12590e-05
 Reference value :  4.12728e-05
 Reference value :  4.13761e-05
 Reference value :  4.15000e-05
 Reference value :  4.15001e-05
 Reference value :  4.15002e-05
 Reference value :  4.15003e-05
 Reference value :  4.15008e-05
 Reference value :  4.15015e-05
 Reference value :  4.15023e-05
 Reference value :  4.15028e-05
 Reference value :  4.15039e-05
 Reference value :  4.15054e-05
 Reference value :  4.15060e-05
 Reference value :  4.15075e-05
 Reference value :  4.15103e-05
 Reference value :  4.15167e-05
 Reference value :  4.15473e-05
 Reference value :  4.17501e-05
 Reference value :  4.17502e-05
 Reference value :  4.17502e-05
 Reference value :  4.17504e-05
 Reference value :  4.17514e-05
 Reference value :  4.17530e-05
 Reference value :  4.17540e-05
 Reference value :  4.17558e-05
 Reference value :  4.17596e-05
 Reference value :  4.17897e-05
 Reference value :  4.20000e-05
 Reference value :  4.20001e-05
 Reference value :  4.20003e-05
 Reference value :  4.20012e-05
 Reference value :  4.20024e-05
 Reference value :  4.20039e-05
 Reference value :  4.20053e-05
 Reference value :  4.20082e-05
 Reference value :  4.20150e-05
 Reference value :  4.20232e-05
 Reference value :  4.20317e-05
 Reference value :  4.20386e-05
 Reference value :  4.20797e-05
 Reference value :  4.22462e-05
 Reference value :  4.22501e-05
 Reference value :  4.22503e-05
 Reference value :  4.22510e-05
 Reference value :  4.22523e-05
 Reference value :  4.22545e-05
 Reference value :  4.22577e-05
 Reference value :  4.22750e-05
 Reference value :  4.25000e-05
 Reference value :  4.25000e-05
 Reference value :  4.25000e-05
 Reference value :  4.25001e-05
 Reference value :  4.25001e-05
 Reference value :  4.25002e-05
 Reference value :  4.25004e-05
 Reference value :  4.25012e-05
 Reference value :  4.25020e-05
 Reference value :  4.25029e-05
 Reference value :  4.25040e-05
 Reference value :  4.25045e-05
 Reference value :  4.25055e-05
 Reference value :  4.25090e-05
 Reference value :  4.25173e-05
 Reference value :  4.25224e-05
 Reference value :  4.25263e-05
 Reference value :  4.25291e-05
 Reference value :  4.25317e-05
 Reference value :  4.25358e-05
 Reference value :  4.25458e-05
 Reference value :  4.25688e-05
 Reference value :  4.26598e-05
 Reference value :  4.27501e-05
 Reference value :  4.27502e-05
 Reference value :  4.27507e-05
 Reference value :  4.27519e-05
 Reference value :  4.27534e-05
 Reference value :  4.27551e-05
 Reference value :  4.27587e-05
 Reference value :  4.27846e-05
 Reference value :  4.30000e-05
 Reference value :  4.30001e-05
 Reference value :  4.30003e-05
 Reference value :  4.30012e-05
 Reference value :  4.30020e-05
 Reference value :  4.30034e-05
 Reference value :  4.30055e-05
 Reference value :  4.30078e-05
 Reference value :  4.30115e-05
 Reference value :  4.30141e-05
 Reference value :  4.30215e-05
 Reference value :  4.30801e-05
 Reference value :  4.32501e-05
 Reference value :  4.32502e-05
 Reference value :  4.32503e-05
 Reference value :  4.32507e-05
 Reference value :  4.32514e-05
 Reference value :  4.32530e-05
 Reference value :  4.32540e-05
 Reference value :  4.32550e-05
 Reference value :  4.32566e-05
 Reference value :  4.32697e-05
 Reference value :  4.34559e-05
 Reference value :  4.35007e-05
 Reference value :  4.35030e-05
 Reference value :  4.35044e-05
 Reference value :  4.35056e-05
 Reference value :  4.35094e-05
 Reference value :  4.35130e-05
 Reference value :  4.35148e-05
 Reference value :  4.35182e-05
 Reference value :  4.35261e-05
 Reference value :  4.35691e-05
 Reference value :  4.37501e-05
 Reference value :  4.37502e-05
 Reference value :  4.37502e-05
 Reference value :  4.37504e-05
 Reference value :  4.37510e-05
 Reference value :  4.37519e-05
 Reference value :  4.37530e-05
 Reference value :  4.37539e-05
 Reference value :  4.37551e-05
 Reference value :  4.37586e-05
 Reference value :  4.37709e-05
 Reference value :  4.38606e-05
 Reference value :  4.40000e-05
 Reference value :  4.40001e-05
 Reference value :  4.40002e-05
 Reference value :  4.40003e-05
 Reference value :  4.40008e-05
 Reference value :  4.40016e-05
 Reference value :  4.40024e-05
 Reference value :  4.40034e-05
 Reference value :  4.40047e-05
 Reference value :  4.40062e-05
 Reference value :  4.40077e-05
 Reference value :  4.40109e-05
 Reference value :  4.40204e-05
 Reference value :  4.40809e-05
 Reference value :  4.42501e-05
 Reference value :  4.42502e-05
 Reference value :  4.42502e-05
 Reference value :  4.42504e-05
 Reference value :  4.42510e-05
 Reference value :  4.42519e-05
 Reference value :  4.42530e-05
 Reference value :  4.42534e-05
 Reference value :  4.42545e-05
 Reference value :  4.42558e-05
 Reference value :  4.42603e-05
 Reference value :  4.43077e-05
 Reference value :  4.45000e-05
 Reference value :  4.45001e-05
 Reference value :  4.45002e-05
 Reference value :  4.45008e-05
 Reference value :  4.45016e-05
 Reference value :  4.45029e-05
 Reference value :  4.45045e-05
 Reference value :  4.45055e-05
 Reference value :  4.45085e-05
 Reference value :  4.45112e-05
 Reference value :  4.45132e-05
 Reference value :  4.45152e-05
 Reference value :  4.45191e-05
 Reference value :  4.45286e-05
 Reference value :  4.45719e-05
 Reference value :  4.47501e-05
 Reference value :  4.47502e-05
 Reference value :  4.47502e-05
 Reference value :  4.47504e-05
 Reference value :  4.47510e-05
 Reference value :  4.47514e-05
 Reference value :  4.47523e-05
 Reference value :  4.47534e-05
 Reference value :  4.47546e-05
 Reference value :  4.47560e-05
 Reference value :  4.47616e-05
 Reference value :  4.47867e-05
 Reference value :  4.49872e-05
 Reference value :  4.50001e-05
 Reference value :  4.50001e-05
 Reference value :  4.50003e-05
 Reference value :  4.50012e-05
 Reference value :  4.50020e-05
 Reference value :  4.50029e-05
 Reference value :  4.50040e-05
 Reference value :  4.50055e-05
 Reference value :  4.50062e-05
 Reference value :  4.50086e-05
 Reference value :  4.50205e-05
 Reference value :  4.52501e-05
 Reference value :  4.52502e-05
 Reference value :  4.52503e-05
 Reference value :  4.52510e-05
 Reference value :  4.52519e-05
 Reference value :  4.52530e-05
 Reference value :  4.52534e-05
 Reference value :  4.52545e-05
 Reference value :  4.52558e-05
 Reference value :  4.52636e-05
 Reference value :  4.53073e-05
 Reference value :  4.55000e-05
 Reference value :  4.55001e-05
 Reference value :  4.55001e-05
 Reference value :  4.55003e-05
 Reference value :  4.55008e-05
 Reference value :  4.55016e-05
 Reference value :  4.55024e-05
 Reference value :  4.55034e-05
 Reference value :  4.55045e-05
 Reference value :  4.55055e-05
 Reference value :  4.55085e-05
 Reference value :  4.55112e-05
 Reference value :  4.55132e-05
 Reference value :  4.55152e-05
 Reference value :  4.55192e-05
 Reference value :  4.55330e-05
 Reference value :  4.55432e-05
 Reference value :  4.55591e-05
 Reference value :  4.55941e-05
 Reference value :  4.56921e-05
 Reference value :  4.57501e-05
 Reference value :  4.57502e-05
 Reference value :  4.57503e-05
 Reference value :  4.57510e-05
 Reference value :  4.57519e-05
 Reference value :  4.57530e-05
 Reference value :  4.57539e-05
 Reference value :  4.57559e-05
 Reference value :  4.57649e-05
 Reference value :  4.58133e-05
 Reference value :  4.60004e-05
 Reference value :  4.60015e-05
 Reference value :  4.60023e-05
 Reference value :  4.60028e-05
 Reference value :  4.60040e-05
 Reference value :  4.60056e-05
 Reference value :  4.60063e-05
 Reference value :  4.60078e-05
 Reference value :  4.60096e-05
 Reference value :  4.60162e-05
 Reference value :  4.60525e-05
 Reference value :  4.62501e-05
 Reference value :  4.62502e-05
 Reference value :  4.62502e-05
 Reference value :  4.62504e-05
 Reference value :  4.62514e-05
 Reference value :  4.62523e-05
 Reference value :  4.62534e-05
 Reference value :  4.62545e-05
 Reference value :  4.62558e-05
 Reference value :  4.62583e-05
 Reference value :  4.62610e-05
 Reference value :  4.62747e-05
 Reference value :  4.63785e-05
 Reference value :  4.65000e-05
 Reference value :  4.65001e-05
 Reference value :  4.65002e-05
 Reference value :  4.65003e-05
 Reference value :  4.65008e-05
 Reference value :  4.65016e-05
 Reference value :  4.65024e-05
 Reference value :  4.65029e-05
 Reference value :  4.65039e-05
 Reference value :  4.65048e-05
 Reference value :  4.65059e-05
 Reference value :  4.65076e-05
 Reference value :  4.65093e-05
 Reference value :  4.65111e-05
 Reference value :  4.65136e-05
 Reference value :  4.65166e-05
 Reference value :  4.65242e-05
 Reference value :  4.65269e-05
 Reference value :  4.65308e-05
 Reference value :  4.65601e-05
 Reference value :  4.66533e-05
 Reference value :  4.67501e-05
 Reference value :  4.67502e-05
 Reference value :  4.67507e-05
 Reference value :  4.67514e-05
 Reference value :  4.67530e-05
 Reference value :  4.67540e-05
 Reference value :  4.67560e-05
 Reference value :  4.67652e-05
 Reference value :  4.68725e-05
 Reference value :  4.70000e-05
 Reference value :  4.70001e-05
 Reference value :  4.70002e-05
 Reference value :  4.70005e-05
 Reference value :  4.70016e-05
 Reference value :  4.70029e-05
 Reference value :  4.70047e-05
 Reference value :  4.70062e-05
 Reference value :  4.70077e-05
 Reference value :  4.70125e-05
 Reference value :  4.70825e-05
 Reference value :  4.72502e-05
 Reference value :  4.72503e-05
 Reference value :  4.72514e-05
 Reference value :  4.72530e-05
 Reference value :  4.72540e-05
 Reference value :  4.72550e-05
 Reference value :  4.72566e-05
 Reference value :  4.72636e-05
 Reference value :  4.73069e-05
 Reference value :  4.75000e-05
 Reference value :  4.75001e-05
 Reference value :  4.75002e-05
 Reference value :  4.75005e-05
 Reference value :  4.75012e-05
 Reference value :  4.75020e-05
 Reference value :  4.75029e-05
 Reference value :  4.75045e-05
 Reference value :  4.75055e-05
 Reference value :  4.75100e-05
 Reference value :  4.75122e-05
 Reference value :  4.75143e-05
 Reference value :  4.75163e-05
 Reference value :  4.75207e-05
 Reference value :  4.75336e-05
 Reference value :  4.75423e-05
 Reference value :  4.75516e-05
 Reference value :  4.75569e-05
 Reference value :  4.76139e-05
 Reference value :  4.76834e-05
 Reference value :  4.77501e-05
 Reference value :  4.77502e-05
 Reference value :  4.77503e-05
 Reference value :  4.77510e-05
 Reference value :  4.77519e-05
 Reference value :  4.77530e-05
 Reference value :  4.77539e-05
 Reference value :  4.77559e-05
 Reference value :  4.77614e-05
 Reference value :  4.77856e-05
 Reference value :  4.77995e-05
 Reference value :  4.78324e-05
 Reference value :  4.78886e-05
 Reference value :  4.80000e-05
 Reference value :  4.80001e-05
 Reference value :  4.80003e-05
 Reference value :  4.80016e-05
 Reference value :  4.80029e-05
 Reference value :  4.80047e-05
 Reference value :  4.80062e-05
 Reference value :  4.80077e-05
 Reference value :  4.80095e-05
 Reference value :  4.80155e-05
 Reference value :  4.80462e-05
 Reference value :  4.82501e-05
 Reference value :  4.82502e-05
 Reference value :  4.82502e-05
 Reference value :  4.82504e-05
 Reference value :  4.82510e-05
 Reference value :  4.82519e-05
 Reference value :  4.82530e-05
 Reference value :  4.82534e-05
 Reference value :  4.82545e-05
 Reference value :  4.82558e-05
 Reference value :  4.82603e-05
 Reference value :  4.82823e-05
 Reference value :  4.84569e-05
 Reference value :  4.85000e-05
 Reference value :  4.85001e-05
 Reference value :  4.85002e-05
 Reference value :  4.85008e-05
 Reference value :  4.85020e-05
 Reference value :  4.85034e-05
 Reference value :  4.85050e-05
 Reference value :  4.85071e-05
 Reference value :  4.85100e-05
 Reference value :  4.85112e-05
 Reference value :  4.85122e-05
 Reference value :  4.85143e-05
 Reference value :  4.85163e-05
 Reference value :  4.85240e-05
 Reference value :  4.85310e-05
 Reference value :  4.85407e-05
 Reference value :  4.85642e-05
 Reference value :  4.86590e-05
 Reference value :  4.87501e-05
 Reference value :  4.87502e-05
 Reference value :  4.87507e-05
 Reference value :  4.87519e-05
 Reference value :  4.87534e-05
 Reference value :  4.87553e-05
 Reference value :  4.87615e-05
 Reference value :  4.88690e-05
 Reference value :  4.90001e-05
 Reference value :  4.90002e-05
 Reference value :  4.90008e-05
 Reference value :  4.90019e-05
 Reference value :  4.90028e-05
 Reference value :  4.90046e-05
 Reference value :  4.90060e-05
 Reference value :  4.90075e-05
 Reference value :  4.90103e-05
 Reference value :  4.90316e-05
 Reference value :  4.92501e-05
 Reference value :  4.92502e-05
 Reference value :  4.92503e-05
 Reference value :  4.92510e-05
 Reference value :  4.92519e-05
 Reference value :  4.92530e-05
 Reference value :  4.92534e-05
 Reference value :  4.92545e-05
 Reference value :  4.92558e-05
 Reference value :  4.92584e-05
 Reference value :  4.92674e-05
 Reference value :  4.93792e-05
 Reference value :  4.95000e-05
 Reference value :  4.95001e-05
 Reference value :  4.95003e-05
 Reference value :  4.95012e-05
 Reference value :  4.95020e-05
 Reference value :  4.95029e-05
 Reference value :  4.95039e-05
 Reference value :  4.95048e-05
 Reference value :  4.95066e-05
 Reference value :  4.95085e-05
 Reference value :  4.95102e-05
 Reference value :  4.95119e-05
 Reference value :  4.95136e-05
 Reference value :  4.95165e-05
 Reference value :  4.95229e-05
 Reference value :  4.95691e-05
 Reference value :  4.96912e-05
 Reference value :  4.97501e-05
 Reference value :  4.97502e-05
 Reference value :  4.97503e-05
 Reference value :  4.97504e-05
 Reference value :  4.97510e-05
 Reference value :  4.97519e-05
 Reference value :  4.97530e-05
 Reference value :  4.97540e-05
 Reference value :  4.97553e-05
 Reference value :  4.97590e-05
 Reference value :  4.97875e-05
 Reference value :  4.99934e-05
 Reference value :  5.00000e-05
[...]
 Reference value :  1.66534e-04
 Reference value :  1.66549e-04
 Reference value :  1.66580e-04
 Reference value :  1.66592e-04
 Reference value :  1.66628e-04
 Reference value :  1.66750e-04
 Reference value :  1.66750e-04
 Reference value :  1.66751e-04
 Reference value :  1.66753e-04
 Reference value :  1.66755e-04
 Reference value :  1.66765e-04
 Reference value :  1.67000e-04
 Reference value :  1.67000e-04
 Reference value :  1.67001e-04
 Reference value :  1.67002e-04
 Reference value :  1.67003e-04
 Reference value :  1.67006e-04
 Reference value :  1.67010e-04
 Reference value :  1.67047e-04
 Reference value :  1.67250e-04
 Reference value :  1.67250e-04
 Reference value :  1.67251e-04
 Reference value :  1.67253e-04
 Reference value :  1.67254e-04
 Reference value :  1.67258e-04
 Reference value :  1.67457e-04
 Reference value :  1.67500e-04
 Reference value :  1.67501e-04
 Reference value :  1.67502e-04
 Reference value :  1.67504e-04
 Reference value :  1.67507e-04
 Reference value :  1.67511e-04
 Reference value :  1.67515e-04
 Reference value :  1.67524e-04
 Reference value :  1.67531e-04
 Reference value :  1.67540e-04
 Reference value :  1.67565e-04
 Reference value :  1.67578e-04
 Reference value :  1.67606e-04
 Reference value :  1.67750e-04
 Reference value :  1.67750e-04
 Reference value :  1.67751e-04
 Reference value :  1.67753e-04
 Reference value :  1.67755e-04
 Reference value :  1.67759e-04
 Reference value :  1.67789e-04
 Reference value :  1.68000e-04
 Reference value :  1.68000e-04
 Reference value :  1.68000e-04
 Reference value :  1.68001e-04
 Reference value :  1.68002e-04
 Reference value :  1.68003e-04
 Reference value :  1.68004e-04
 Reference value :  1.68006e-04
 Reference value :  1.68006e-04
 Reference value :  1.68008e-04
 Reference value :  1.68011e-04
 Reference value :  1.68029e-04
 Reference value :  1.68250e-04
 Reference value :  1.68250e-04
 Reference value :  1.68250e-04
 Reference value :  1.68251e-04
 Reference value :  1.68251e-04
 Reference value :  1.68253e-04
 Reference value :  1.68254e-04
 Reference value :  1.68255e-04
 Reference value :  1.68257e-04
 Reference value :  1.68264e-04
 Reference value :  1.68307e-04
 Reference value :  1.68500e-04
 Reference value :  1.68500e-04
 Reference value :  1.68500e-04
 Reference value :  1.68501e-04
 Reference value :  1.68501e-04
 Reference value :  1.68502e-04
 Reference value :  1.68503e-04
 Reference value :  1.68504e-04
 Reference value :  1.68505e-04
 Reference value :  1.68507e-04
 Reference value :  1.68510e-04
 Reference value :  1.68511e-04
 Reference value :  1.68512e-04
 Reference value :  1.68514e-04
 Reference value :  1.68515e-04
 Reference value :  1.68516e-04
 Reference value :  1.68521e-04
 Reference value :  1.68527e-04
 Reference value :  1.68545e-04
 Reference value :  1.68582e-04
 Reference value :  1.68610e-04
 Reference value :  1.68740e-04
 Reference value :  1.68750e-04
 Reference value :  1.68750e-04
 Reference value :  1.68750e-04
 Reference value :  1.68751e-04
 Reference value :  1.68753e-04
 Reference value :  1.68754e-04
 Reference value :  1.68756e-04
 Reference value :  1.68765e-04
 Reference value :  1.68872e-04
 Reference value :  1.69000e-04
 Reference value :  1.69000e-04
 Reference value :  1.69000e-04
 Reference value :  1.69000e-04
 Reference value :  1.69001e-04
 Reference value :  1.69002e-04
 Reference value :  1.69002e-04
 Reference value :  1.69003e-04
 Reference value :  1.69006e-04
 Reference value :  1.69007e-04
 Reference value :  1.69009e-04
 Reference value :  1.69012e-04
 Reference value :  1.69082e-04
 Reference value :  1.69250e-04
 Reference value :  1.69250e-04
 Reference value :  1.69251e-04
 Reference value :  1.69253e-04
 Reference value :  1.69254e-04
 Reference value :  1.69255e-04
 Reference value :  1.69260e-04
 Reference value :  1.69357e-04
 Reference value :  1.69500e-04
 Reference value :  1.69500e-04
 Reference value :  1.69501e-04
 Reference value :  1.69502e-04
 Reference value :  1.69503e-04
 Reference value :  1.69505e-04
 Reference value :  1.69506e-04
 Reference value :  1.69507e-04
 Reference value :  1.69509e-04
 Reference value :  1.69523e-04
 Reference value :  1.69733e-04
 Reference value :  1.69750e-04
 Reference value :  1.69750e-04
 Reference value :  1.69751e-04
 Reference value :  1.69751e-04
 Reference value :  1.69752e-04
 Reference value :  1.69754e-04
 Reference value :  1.69755e-04
 Reference value :  1.69758e-04
 Reference value :  1.69766e-04
 Reference value :  1.69882e-04
 Reference value :  1.70000e-04
 Reference value :  1.70000e-04
 Reference value :  1.70000e-04
 Reference value :  1.70000e-04
 Reference value :  1.70000e-04
 Reference value :  1.70000e-04
 Reference value :  1.70000e-04
 Reference value :  1.70001e-04
 Reference value :  1.70002e-04
 Reference value :  1.70003e-04
 Reference value :  1.70004e-04
 Reference value :  1.70004e-04
 Reference value :  1.70006e-04
 Reference value :  1.70007e-04
 Reference value :  1.70017e-04
 Reference value :  1.70022e-04
 Reference value :  1.70026e-04
 Reference value :  1.70029e-04
 Reference value :  1.70032e-04
 Reference value :  1.70034e-04
 Reference value :  1.70038e-04
 Reference value :  1.70042e-04
 Reference value :  1.70048e-04
 Reference value :  1.70056e-04
 Reference value :  1.70072e-04
 Reference value :  1.70106e-04
 Reference value :  1.70245e-04
 Reference value :  1.70250e-04
 Reference value :  1.70250e-04
 Reference value :  1.70250e-04
 Reference value :  1.70250e-04
 Reference value :  1.70251e-04
 Reference value :  1.70251e-04
 Reference value :  1.70252e-04
 Reference value :  1.70253e-04
 Reference value :  1.70253e-04
 Reference value :  1.70255e-04
 Reference value :  1.70256e-04
 Reference value :  1.70259e-04
 Reference value :  1.70271e-04
 Reference value :  1.70364e-04
 Reference value :  1.70500e-04
 Reference value :  1.70500e-04
 Reference value :  1.70500e-04
 Reference value :  1.70500e-04
 Reference value :  1.70501e-04
 Reference value :  1.70502e-04
 Reference value :  1.70502e-04
 Reference value :  1.70503e-04
 Reference value :  1.70504e-04
 Reference value :  1.70506e-04
 Reference value :  1.70507e-04
 Reference value :  1.70510e-04
 Reference value :  1.70512e-04
 Reference value :  1.70514e-04
 Reference value :  1.70518e-04
 Reference value :  1.70536e-04
 Reference value :  1.70640e-04
 Reference value :  1.70750e-04
 Reference value :  1.70750e-04
 Reference value :  1.70750e-04
 Reference value :  1.70751e-04
 Reference value :  1.70752e-04
 Reference value :  1.70753e-04
 Reference value :  1.70754e-04
 Reference value :  1.70755e-04
 Reference value :  1.70757e-04
 Reference value :  1.70770e-04
 Reference value :  1.70857e-04
 Reference value :  1.71000e-04
 Reference value :  1.71000e-04
 Reference value :  1.71000e-04
 Reference value :  1.71000e-04
 Reference value :  1.71001e-04
 Reference value :  1.71002e-04
 Reference value :  1.71003e-04
 Reference value :  1.71004e-04
 Reference value :  1.71005e-04
 Reference value :  1.71006e-04
 Reference value :  1.71008e-04
 Reference value :  1.71011e-04
 Reference value :  1.71012e-04
 Reference value :  1.71014e-04
 Reference value :  1.71015e-04
 Reference value :  1.71017e-04
 Reference value :  1.71024e-04
 Reference value :  1.71049e-04
 Reference value :  1.71189e-04
 Reference value :  1.71250e-04
 Reference value :  1.71250e-04
 Reference value :  1.71250e-04
 Reference value :  1.71250e-04
 Reference value :  1.71250e-04
 Reference value :  1.71251e-04
 Reference value :  1.71251e-04
 Reference value :  1.71252e-04
 Reference value :  1.71253e-04
 Reference value :  1.71255e-04
 Reference value :  1.71257e-04
 Reference value :  1.71265e-04
 Reference value :  1.71373e-04
 Reference value :  1.71500e-04
 Reference value :  1.71500e-04
 Reference value :  1.71500e-04
 Reference value :  1.71500e-04
 Reference value :  1.71501e-04
 Reference value :  1.71502e-04
 Reference value :  1.71502e-04
 Reference value :  1.71503e-04
 Reference value :  1.71505e-04
 Reference value :  1.71506e-04
 Reference value :  1.71508e-04
 Reference value :  1.71510e-04
 Reference value :  1.71520e-04
 Reference value :  1.71651e-04
 Reference value :  1.71750e-04
 Reference value :  1.71750e-04
 Reference value :  1.71750e-04
 Reference value :  1.71751e-04
 Reference value :  1.71751e-04
 Reference value :  1.71752e-04
 Reference value :  1.71753e-04
 Reference value :  1.71754e-04
 Reference value :  1.71756e-04
 Reference value :  1.71760e-04
 Reference value :  1.71807e-04
 Reference value :  1.72000e-04
 Reference value :  1.72000e-04
 Reference value :  1.72000e-04
 Reference value :  1.72000e-04
 Reference value :  1.72001e-04
 Reference value :  1.72002e-04
 Reference value :  1.72003e-04
 Reference value :  1.72004e-04
 Reference value :  1.72005e-04
 Reference value :  1.72006e-04
 Reference value :  1.72010e-04
 Reference value :  1.72012e-04
 Reference value :  1.72014e-04
 Reference value :  1.72015e-04
 Reference value :  1.72017e-04
 Reference value :  1.72024e-04
 Reference value :  1.72049e-04
 Reference value :  1.72200e-04
 Reference value :  1.72250e-04
 Reference value :  1.72250e-04
 Reference value :  1.72250e-04
 Reference value :  1.72251e-04
 Reference value :  1.72251e-04
 Reference value :  1.72252e-04
 Reference value :  1.72253e-04
 Reference value :  1.72255e-04
 Reference value :  1.72256e-04
 Reference value :  1.72262e-04
 Reference value :  1.72287e-04
 Reference value :  1.72487e-04
 Reference value :  1.72500e-04
 Reference value :  1.72500e-04
 Reference value :  1.72500e-04
 Reference value :  1.72501e-04
 Reference value :  1.72501e-04
 Reference value :  1.72502e-04
 Reference value :  1.72503e-04
 Reference value :  1.72504e-04
 Reference value :  1.72506e-04
 Reference value :  1.72506e-04
 Reference value :  1.72508e-04
 Reference value :  1.72511e-04
 Reference value :  1.72520e-04
 Reference value :  1.72651e-04
 Reference value :  1.72750e-04
 Reference value :  1.72750e-04
 Reference value :  1.72751e-04
 Reference value :  1.72752e-04
 Reference value :  1.72753e-04
 Reference value :  1.72755e-04
 Reference value :  1.72757e-04
 Reference value :  1.72770e-04
 Reference value :  1.73000e-04
 Reference value :  1.73000e-04
 Reference value :  1.73000e-04
 Reference value :  1.73001e-04
 Reference value :  1.73002e-04
 Reference value :  1.73004e-04
 Reference value :  1.73005e-04
 Reference value :  1.73008e-04
 Reference value :  1.73011e-04
 Reference value :  1.73014e-04
 Reference value :  1.73016e-04
 Reference value :  1.73019e-04
 Reference value :  1.73033e-04
 Reference value :  1.73039e-04
 Reference value :  1.73047e-04
 Reference value :  1.73056e-04
 Reference value :  1.73080e-04
 Reference value :  1.73133e-04
 Reference value :  1.73218e-04
 Reference value :  1.73250e-04
 Reference value :  1.73250e-04
 Reference value :  1.73250e-04
 Reference value :  1.73251e-04
 Reference value :  1.73252e-04
 Reference value :  1.73253e-04
 Reference value :  1.73254e-04
 Reference value :  1.73256e-04
 Reference value :  1.73265e-04
 Reference value :  1.73368e-04
 Reference value :  1.73500e-04
 Reference value :  1.73500e-04
 Reference value :  1.73501e-04
 Reference value :  1.73502e-04
 Reference value :  1.73503e-04
 Reference value :  1.73504e-04
 Reference value :  1.73506e-04
 Reference value :  1.73507e-04
 Reference value :  1.73510e-04
 Reference value :  1.73522e-04
 Reference value :  1.73569e-04
 Reference value :  1.73621e-04
 Reference value :  1.73702e-04
 Reference value :  1.73750e-04
 Reference value :  1.73750e-04
 Reference value :  1.73750e-04
 Reference value :  1.73751e-04
 Reference value :  1.73752e-04
 Reference value :  1.73753e-04
 Reference value :  1.73754e-04
 Reference value :  1.73755e-04
 Reference value :  1.73758e-04
 Reference value :  1.73782e-04
 Reference value :  1.74000e-04
 Reference value :  1.74000e-04
 Reference value :  1.74000e-04
 Reference value :  1.74001e-04
 Reference value :  1.74002e-04
 Reference value :  1.74003e-04
 Reference value :  1.74004e-04
 Reference value :  1.74006e-04
 Reference value :  1.74010e-04
 Reference value :  1.74012e-04
 Reference value :  1.74015e-04
 Reference value :  1.74019e-04
 Reference value :  1.74026e-04
 Reference value :  1.74033e-04
 Reference value :  1.74039e-04
 Reference value :  1.74048e-04
 Reference value :  1.74059e-04
 Reference value :  1.74098e-04
 Reference value :  1.74222e-04
 Reference value :  1.74250e-04
 Reference value :  1.74250e-04
 Reference value :  1.74250e-04
 Reference value :  1.74251e-04
 Reference value :  1.74253e-04
 Reference value :  1.74255e-04
 Reference value :  1.74261e-04
 Reference value :  1.74368e-04
 Reference value :  1.74500e-04
 Reference value :  1.74500e-04
 Reference value :  1.74501e-04
 Reference value :  1.74501e-04
 Reference value :  1.74502e-04
 Reference value :  1.74503e-04
 Reference value :  1.74505e-04
 Reference value :  1.74506e-04
 Reference value :  1.74507e-04
 Reference value :  1.74510e-04
 Reference value :  1.74522e-04
 Reference value :  1.74643e-04
 Reference value :  1.74750e-04
 Reference value :  1.74750e-04
 Reference value :  1.74750e-04
 Reference value :  1.74751e-04
 Reference value :  1.74753e-04
 Reference value :  1.74753e-04
 Reference value :  1.74754e-04
 Reference value :  1.74756e-04
 Reference value :  1.74757e-04
 Reference value :  1.74760e-04
 Reference value :  1.74767e-04
 Reference value :  1.74819e-04
 Reference value :  1.75000e-04
 Reference value :  1.75000e-04
 Reference value :  1.75000e-04
 Reference value :  1.75000e-04
 Reference value :  1.75001e-04
 Reference value :  1.75001e-04
 Reference value :  1.75002e-04
 Reference value :  1.75002e-04
 Reference value :  1.75003e-04
 Reference value :  1.75004e-04
 Reference value :  1.75005e-04
 Reference value :  1.75006e-04
 Reference value :  1.75008e-04
 Reference value :  1.75009e-04
 Reference value :  1.75010e-04
 Reference value :  1.75012e-04
 Reference value :  1.75014e-04
 Reference value :  1.75015e-04
 Reference value :  1.75019e-04
 Reference value :  1.75029e-04
 Reference value :  1.75039e-04
 Reference value :  1.75043e-04
 Reference value :  1.75048e-04
 Reference value :  1.75056e-04
 Reference value :  1.75073e-04
 Reference value :  1.75085e-04
 Reference value :  1.75098e-04
 Reference value :  1.75121e-04
 Reference value :  1.75166e-04
 Reference value :  1.75198e-04
 Reference value :  1.75250e-04
 Reference value :  1.75250e-04
 Reference value :  1.75250e-04
 Reference value :  1.75250e-04
 Reference value :  1.75250e-04
 Reference value :  1.75251e-04
 Reference value :  1.75251e-04
 Reference value :  1.75252e-04
 Reference value :  1.75253e-04
 Reference value :  1.75255e-04
 Reference value :  1.75256e-04
 Reference value :  1.75262e-04
 Reference value :  1.75286e-04
 Reference value :  1.75484e-04
 Reference value :  1.75500e-04
 Reference value :  1.75500e-04
 Reference value :  1.75500e-04
 Reference value :  1.75500e-04
 Reference value :  1.75501e-04
 Reference value :  1.75502e-04
 Reference value :  1.75502e-04
 Reference value :  1.75503e-04
 Reference value :  1.75505e-04
 Reference value :  1.75506e-04
 Reference value :  1.75507e-04
 Reference value :  1.75510e-04
 Reference value :  1.75532e-04
 Reference value :  1.75750e-04
 Reference value :  1.75750e-04
 Reference value :  1.75750e-04
 Reference value :  1.75751e-04
 Reference value :  1.75752e-04
 Reference value :  1.75753e-04
 Reference value :  1.75755e-04
 Reference value :  1.75757e-04
 Reference value :  1.75761e-04
 Reference value :  1.75789e-04
 Reference value :  1.76000e-04
 Reference value :  1.76000e-04
 Reference value :  1.76000e-04
 Reference value :  1.76000e-04
 Reference value :  1.76001e-04
 Reference value :  1.76002e-04
 Reference value :  1.76003e-04
 Reference value :  1.76005e-04
 Reference value :  1.76008e-04
 Reference value :  1.76010e-04
 Reference value :  1.76013e-04
 Reference value :  1.76015e-04
 Reference value :  1.76019e-04
 Reference value :  1.76029e-04
 Reference value :  1.76050e-04
 Reference value :  1.76089e-04
 Reference value :  1.76129e-04
 Reference value :  1.76250e-04
 Reference value :  1.76250e-04
 Reference value :  1.76250e-04
 Reference value :  1.76251e-04
 Reference value :  1.76252e-04
 Reference value :  1.76253e-04
 Reference value :  1.76255e-04
 Reference value :  1.76262e-04
 Reference value :  1.76317e-04
 Reference value :  1.76500e-04
 Reference value :  1.76500e-04
 Reference value :  1.76500e-04
 Reference value :  1.76501e-04
 Reference value :  1.76501e-04
 Reference value :  1.76502e-04
 Reference value :  1.76503e-04
 Reference value :  1.76504e-04
 Reference value :  1.76505e-04
 Reference value :  1.76506e-04
 Reference value :  1.76507e-04
 Reference value :  1.76510e-04
 Reference value :  1.76522e-04
 Reference value :  1.76642e-04
 Reference value :  1.76750e-04
 Reference value :  1.76750e-04
 Reference value :  1.76751e-04
 Reference value :  1.76751e-04
 Reference value :  1.76753e-04
 Reference value :  1.76753e-04
 Reference value :  1.76755e-04
 Reference value :  1.76757e-04
 Reference value :  1.76760e-04
 Reference value :  1.76775e-04
 Reference value :  1.76877e-04
 Reference value :  1.77000e-04
 Reference value :  1.77000e-04
 Reference value :  1.77000e-04
 Reference value :  1.77001e-04
 Reference value :  1.77002e-04
 Reference value :  1.77003e-04
 Reference value :  1.77004e-04
 Reference value :  1.77005e-04
 Reference value :  1.77007e-04
 Reference value :  1.77008e-04
 Reference value :  1.77010e-04
 Reference value :  1.77012e-04
 Reference value :  1.77014e-04
 Reference value :  1.77015e-04
 Reference value :  1.77019e-04
 Reference value :  1.77024e-04
 Reference value :  1.77039e-04
 Reference value :  1.77087e-04
 Reference value :  1.77135e-04
 Reference value :  1.77250e-04
 Reference value :  1.77250e-04
 Reference value :  1.77250e-04
 Reference value :  1.77250e-04
 Reference value :  1.77251e-04
 Reference value :  1.77253e-04
 Reference value :  1.77254e-04
 Reference value :  1.77256e-04
 Reference value :  1.77265e-04
 Reference value :  1.77375e-04
 Reference value :  1.77500e-04
 Reference value :  1.77500e-04
 Reference value :  1.77500e-04
 Reference value :  1.77501e-04
 Reference value :  1.77502e-04
 Reference value :  1.77503e-04
 Reference value :  1.77504e-04
 Reference value :  1.77505e-04
 Reference value :  1.77506e-04
 Reference value :  1.77507e-04
 Reference value :  1.77510e-04
 Reference value :  1.77517e-04
 Reference value :  1.77547e-04
 Reference value :  1.77750e-04
 Reference value :  1.77750e-04
 Reference value :  1.77750e-04
 Reference value :  1.77751e-04
 Reference value :  1.77752e-04
 Reference value :  1.77753e-04
 Reference value :  1.77753e-04
 Reference value :  1.77754e-04
 Reference value :  1.77756e-04
 Reference value :  1.77758e-04
 Reference value :  1.77761e-04
 Reference value :  1.77789e-04
 Reference value :  1.78000e-04
 Reference value :  1.78000e-04
 Reference value :  1.78000e-04
 Reference value :  1.78000e-04
 Reference value :  1.78001e-04
 Reference value :  1.78002e-04
 Reference value :  1.78002e-04
 Reference value :  1.78003e-04
 Reference value :  1.78004e-04
 Reference value :  1.78005e-04
 Reference value :  1.78007e-04
 Reference value :  1.78009e-04
 Reference value :  1.78013e-04
 Reference value :  1.78020e-04
 Reference value :  1.78023e-04
 Reference value :  1.78029e-04
 Reference value :  1.78039e-04
 Reference value :  1.78061e-04
 Reference value :  1.78133e-04
 Reference value :  1.78250e-04
 Reference value :  1.78250e-04
 Reference value :  1.78251e-04
 Reference value :  1.78251e-04
 Reference value :  1.78252e-04
 Reference value :  1.78255e-04
 Reference value :  1.78256e-04
 Reference value :  1.78259e-04
 Reference value :  1.78291e-04
No. of Data Rows : 25697
ngspice-44 done
