
Note: Compatibility modes selected: hs a


Circuit: ** sch_path: /home/ece/cace/sar-adc-using-sky130-pdk/runs/run_2025-09-13_02-23-31/parameters/sndr/run_2/sndr_enob_fom.sch

option SCALE: Scale is set to 1e-06 for instance and model parameters
option SCALE: Scale is set to 1e-06 for instance and model parameters
option SCALE: Scale is set to 1e-06 for instance and model parameters
option SCALE: Scale is set to 1e-06 for instance and model parameters
Doing analysis at TEMP = 27.000000 and TNOM = 27.000000

Using KLU as Direct Linear Solver
Operating point simulation skipped by 'uic',
  now using transient initial conditions.
 Reference value :  1.00000e-12
 Reference value :  1.07919e-12
 Reference value :  3.05283e-12
 Reference value :  1.96041e-11
 Reference value :  1.00000e-10
 Reference value :  1.74873e-10
 Reference value :  9.56373e-10
 Reference value :  2.50738e-09
 Reference value :  5.05343e-09
 Reference value :  6.76970e-09
 Reference value :  8.81179e-09
 Reference value :  1.03020e-08
 Reference value :  1.16905e-08
 Reference value :  1.99562e-08
 Reference value :  2.39187e-08
 Reference value :  3.54031e-08
 Reference value :  5.99918e-08
 Reference value :  2.26665e-07
 Reference value :  2.50130e-07
 Reference value :  2.50223e-07
 Reference value :  2.50389e-07
 Reference value :  2.50957e-07
 Reference value :  2.51695e-07
 Reference value :  2.53256e-07
 Reference value :  2.54260e-07
 Reference value :  2.57475e-07
 Reference value :  2.69677e-07
 Reference value :  4.03130e-07
 Reference value :  5.00070e-07
 Reference value :  5.00156e-07
 Reference value :  5.00516e-07
 Reference value :  5.01187e-07
 Reference value :  5.02011e-07
 Reference value :  5.02907e-07
 Reference value :  5.04017e-07
 Reference value :  5.06612e-07
 Reference value :  5.09008e-07
 Reference value :  5.11637e-07
 Reference value :  5.14501e-07
 Reference value :  5.28208e-07
 Reference value :  6.34122e-07
 Reference value :  7.50130e-07
 Reference value :  7.50256e-07
 Reference value :  7.50986e-07
 Reference value :  7.52296e-07
 Reference value :  7.53450e-07
 Reference value :  7.54490e-07
 Reference value :  7.55778e-07
 Reference value :  7.63369e-07
 Reference value :  9.48857e-07
 Reference value :  1.00007e-06
 Reference value :  1.00016e-06
 Reference value :  1.00083e-06
 Reference value :  1.00201e-06
 Reference value :  1.00341e-06
 Reference value :  1.00500e-06
 Reference value :  1.00709e-06
 Reference value :  1.00996e-06
 Reference value :  1.01119e-06
 Reference value :  1.01324e-06
 Reference value :  1.01627e-06
 Reference value :  1.02403e-06
 Reference value :  1.12240e-06
 Reference value :  1.25013e-06
 Reference value :  1.25026e-06
 Reference value :  1.25098e-06
 Reference value :  1.25230e-06
 Reference value :  1.25346e-06
 Reference value :  1.25609e-06
 Reference value :  1.26591e-06
 Reference value :  1.38485e-06
 Reference value :  1.50007e-06
 Reference value :  1.50016e-06
 Reference value :  1.50052e-06
 Reference value :  1.50158e-06
 Reference value :  1.50289e-06
 Reference value :  1.50474e-06
 Reference value :  1.50616e-06
 Reference value :  1.50771e-06
 Reference value :  1.51250e-06
 Reference value :  1.58396e-06
 Reference value :  1.75013e-06
 Reference value :  1.75022e-06
 Reference value :  1.75069e-06
 Reference value :  1.75140e-06
 Reference value :  1.75299e-06
 Reference value :  1.75345e-06
 Reference value :  1.75449e-06
 Reference value :  1.75580e-06
 Reference value :  1.76031e-06
 Reference value :  1.78272e-06
 Reference value :  1.96047e-06
 Reference value :  2.00003e-06
 Reference value :  2.00012e-06
 Reference value :  2.00034e-06
 Reference value :  2.00083e-06
 Reference value :  2.00158e-06
 Reference value :  2.00289e-06
 Reference value :  2.00500e-06
 Reference value :  2.00709e-06
 Reference value :  2.01120e-06
 Reference value :  2.01323e-06
 Reference value :  2.01525e-06
 Reference value :  2.01914e-06
 Reference value :  2.03353e-06
 Reference value :  2.04541e-06
 Reference value :  2.05415e-06
 Reference value :  2.07030e-06
 Reference value :  2.10603e-06
 Reference value :  2.25010e-06
 Reference value :  2.25017e-06
 Reference value :  2.25026e-06
 Reference value :  2.25069e-06
 Reference value :  2.25140e-06
 Reference value :  2.25299e-06
 Reference value :  2.25395e-06
 Reference value :  2.25595e-06
 Reference value :  2.26493e-06
 Reference value :  2.36893e-06
 Reference value :  2.50003e-06
 Reference value :  2.50012e-06
 Reference value :  2.50052e-06
 Reference value :  2.50154e-06
 Reference value :  2.50282e-06
 Reference value :  2.50464e-06
 Reference value :  2.50598e-06
 Reference value :  2.50749e-06
 Reference value :  2.51029e-06
 Reference value :  2.52245e-06
 Reference value :  2.64785e-06
 Reference value :  2.75013e-06
 Reference value :  2.75021e-06
 Reference value :  2.75032e-06
 Reference value :  2.75069e-06
 Reference value :  2.75140e-06
 Reference value :  2.75299e-06
 Reference value :  2.75397e-06
 Reference value :  2.75502e-06
 Reference value :  2.75661e-06
 Reference value :  2.75965e-06
 Reference value :  2.77503e-06
 Reference value :  3.00000e-06
 Reference value :  3.00007e-06
 Reference value :  3.00012e-06
 Reference value :  3.00034e-06
 Reference value :  3.00083e-06
 Reference value :  3.00158e-06
 Reference value :  3.00242e-06
 Reference value :  3.00342e-06
 Reference value :  3.00440e-06
 Reference value :  3.00534e-06
 Reference value :  3.00758e-06
 Reference value :  3.00928e-06
 Reference value :  3.01016e-06
 Reference value :  3.01192e-06
 Reference value :  3.01358e-06
 Reference value :  3.01637e-06
 Reference value :  3.02443e-06
 Reference value :  3.04881e-06
 Reference value :  3.05971e-06
 Reference value :  3.07229e-06
 Reference value :  3.16245e-06
 Reference value :  3.25013e-06
 Reference value :  3.25026e-06
 Reference value :  3.25098e-06
 Reference value :  3.25229e-06
 Reference value :  3.25345e-06
 Reference value :  3.25598e-06
 Reference value :  3.27245e-06
 Reference value :  3.50000e-06
 Reference value :  3.50010e-06
 Reference value :  3.50022e-06
 Reference value :  3.50083e-06
 Reference value :  3.50158e-06
 Reference value :  3.50290e-06
 Reference value :  3.50399e-06
 Reference value :  3.50553e-06
 Reference value :  3.50689e-06
 Reference value :  3.50865e-06
 Reference value :  3.51251e-06
 Reference value :  3.52996e-06
 Reference value :  3.65763e-06
 Reference value :  3.75013e-06
 Reference value :  3.75026e-06
 Reference value :  3.75098e-06
 Reference value :  3.75186e-06
 Reference value :  3.75299e-06
 Reference value :  3.75344e-06
 Reference value :  3.75448e-06
 Reference value :  3.75579e-06
 Reference value :  3.76360e-06
 Reference value :  3.85721e-06
 Reference value :  4.00003e-06
 Reference value :  4.00012e-06
 Reference value :  4.00034e-06
 Reference value :  4.00083e-06
 Reference value :  4.00158e-06
 Reference value :  4.00289e-06
 Reference value :  4.00450e-06
 Reference value :  4.00554e-06
 Reference value :  4.00847e-06
 Reference value :  4.01120e-06
 Reference value :  4.01428e-06
 Reference value :  4.01625e-06
 Reference value :  4.02075e-06
 Reference value :  4.03323e-06
 Reference value :  4.03683e-06
 Reference value :  4.04332e-06
 Reference value :  4.05780e-06
 Reference value :  4.08932e-06
 Reference value :  4.25011e-06
 Reference value :  4.25022e-06
 Reference value :  4.25069e-06
 Reference value :  4.25186e-06
 Reference value :  4.25343e-06
 Reference value :  4.25595e-06
 Reference value :  4.28575e-06
 Reference value :  4.50001e-06
 Reference value :  4.50011e-06
 Reference value :  4.50022e-06
 Reference value :  4.50083e-06
 Reference value :  4.50195e-06
 Reference value :  4.50333e-06
 Reference value :  4.50536e-06
 Reference value :  4.50749e-06
 Reference value :  4.51028e-06
 Reference value :  4.52228e-06
 Reference value :  4.75010e-06
 Reference value :  4.75017e-06
 Reference value :  4.75026e-06
 Reference value :  4.75069e-06
 Reference value :  4.75186e-06
 Reference value :  4.75344e-06
 Reference value :  4.75502e-06
 Reference value :  4.75661e-06
 Reference value :  4.75964e-06
 Reference value :  4.78989e-06
 Reference value :  5.00000e-06
 Reference value :  5.00010e-06
 Reference value :  5.00034e-06
 Reference value :  5.00119e-06
 Reference value :  5.00201e-06
 Reference value :  5.00290e-06
 Reference value :  5.00440e-06
 Reference value :  5.00534e-06
 Reference value :  5.00758e-06
 Reference value :  5.00928e-06
 Reference value :  5.01015e-06
 Reference value :  5.01190e-06
 Reference value :  5.01355e-06
 Reference value :  5.01630e-06
 Reference value :  5.02367e-06
 Reference value :  5.03269e-06
 Reference value :  5.04026e-06
 Reference value :  5.10027e-06
 Reference value :  5.25013e-06
 Reference value :  5.25026e-06
 Reference value :  5.25098e-06
 Reference value :  5.25229e-06
 Reference value :  5.25345e-06
 Reference value :  5.25523e-06
 Reference value :  5.27234e-06
 Reference value :  5.50001e-06
 Reference value :  5.50012e-06
 Reference value :  5.50083e-06
 Reference value :  5.50201e-06
 Reference value :  5.50290e-06
 Reference value :  5.50399e-06
 Reference value :  5.50552e-06
 Reference value :  5.50616e-06
 Reference value :  5.50771e-06
 Reference value :  5.51086e-06
 Reference value :  5.52958e-06
 Reference value :  5.65303e-06
 Reference value :  5.75013e-06
 Reference value :  5.75022e-06
 Reference value :  5.75045e-06
 Reference value :  5.75140e-06
 Reference value :  5.75299e-06
 Reference value :  5.75397e-06
 Reference value :  5.75502e-06
 Reference value :  5.75660e-06
 Reference value :  5.76980e-06
 Reference value :  5.95640e-06
 Reference value :  6.00003e-06
 Reference value :  6.00012e-06
 Reference value :  6.00052e-06
 Reference value :  6.00158e-06
 Reference value :  6.00289e-06
 Reference value :  6.00396e-06
 Reference value :  6.00554e-06
 Reference value :  6.00997e-06
 Reference value :  6.01223e-06
 Reference value :  6.01524e-06
 Reference value :  6.01912e-06
 Reference value :  6.02793e-06
 Reference value :  6.03508e-06
 Reference value :  6.04182e-06
 Reference value :  6.05663e-06
 Reference value :  6.08078e-06
 Reference value :  6.20612e-06
 Reference value :  6.25017e-06
 Reference value :  6.25022e-06
 Reference value :  6.25045e-06
 Reference value :  6.25140e-06
 Reference value :  6.25229e-06
 Reference value :  6.25343e-06
 Reference value :  6.25455e-06
 Reference value :  6.25730e-06
 Reference value :  6.26489e-06
 Reference value :  6.31305e-06
 Reference value :  6.50001e-06
 Reference value :  6.50010e-06
 Reference value :  6.50016e-06
 Reference value :  6.50052e-06
 Reference value :  6.50119e-06
 Reference value :  6.50195e-06
 Reference value :  6.50282e-06
 Reference value :  6.50388e-06
 Reference value :  6.50598e-06
 Reference value :  6.50749e-06
 Reference value :  6.51028e-06
 Reference value :  6.52220e-06
 Reference value :  6.57966e-06
 Reference value :  6.75013e-06
 Reference value :  6.75021e-06
 Reference value :  6.75032e-06
 Reference value :  6.75098e-06
 Reference value :  6.75186e-06
 Reference value :  6.75299e-06
 Reference value :  6.75344e-06
 Reference value :  6.75447e-06
 Reference value :  6.75579e-06
 Reference value :  6.75750e-06
 Reference value :  6.75963e-06
 Reference value :  6.76737e-06
 Reference value :  6.81960e-06
 Reference value :  7.00000e-06
 Reference value :  7.00003e-06
 Reference value :  7.00011e-06
 Reference value :  7.00022e-06
 Reference value :  7.00052e-06
 Reference value :  7.00083e-06
 Reference value :  7.00158e-06
 Reference value :  7.00242e-06
 Reference value :  7.00290e-06
 Reference value :  7.00390e-06
 Reference value :  7.00484e-06
 Reference value :  7.00664e-06
 Reference value :  7.00758e-06
 Reference value :  7.00933e-06
 Reference value :  7.01016e-06
 Reference value :  7.01188e-06
 Reference value :  7.01442e-06
 Reference value :  7.01745e-06
 Reference value :  7.02650e-06
 Reference value :  7.08492e-06
 Reference value :  7.25010e-06
 Reference value :  7.25017e-06
 Reference value :  7.25026e-06
 Reference value :  7.25069e-06
 Reference value :  7.25186e-06
 Reference value :  7.25344e-06
 Reference value :  7.25749e-06
 Reference value :  7.37576e-06
 Reference value :  7.50007e-06
 Reference value :  7.50022e-06
 Reference value :  7.50083e-06
 Reference value :  7.50195e-06
 Reference value :  7.50282e-06
 Reference value :  7.50389e-06
 Reference value :  7.50536e-06
 Reference value :  7.50598e-06
 Reference value :  7.50749e-06
 Reference value :  7.50924e-06
 Reference value :  7.51028e-06
 Reference value :  7.51358e-06
 Reference value :  7.52214e-06
 Reference value :  7.54741e-06
 Reference value :  7.75010e-06
 Reference value :  7.75013e-06
 Reference value :  7.75021e-06
 Reference value :  7.75032e-06
 Reference value :  7.75069e-06
 Reference value :  7.75139e-06
 Reference value :  7.75229e-06
 Reference value :  7.75344e-06
 Reference value :  7.75447e-06
 Reference value :  7.75578e-06
 Reference value :  7.75749e-06
 Reference value :  7.75961e-06
 Reference value :  7.76727e-06
 Reference value :  7.81858e-06
 Reference value :  8.00000e-06
 Reference value :  8.00003e-06
 Reference value :  8.00011e-06
 Reference value :  8.00022e-06
 Reference value :  8.00052e-06
 Reference value :  8.00119e-06
 Reference value :  8.00158e-06
 Reference value :  8.00242e-06
 Reference value :  8.00290e-06
 Reference value :  8.00389e-06
 Reference value :  8.00484e-06
 Reference value :  8.00592e-06
 Reference value :  8.00743e-06
 Reference value :  8.00909e-06
 Reference value :  8.01094e-06
 Reference value :  8.01800e-06
 Reference value :  8.03426e-06
 Reference value :  8.05815e-06
 Reference value :  8.07366e-06
 Reference value :  8.09112e-06
 Reference value :  8.10380e-06
 Reference value :  8.15014e-06
 Reference value :  8.25010e-06
 Reference value :  8.25017e-06
 Reference value :  8.25022e-06
 Reference value :  8.25045e-06
 Reference value :  8.25139e-06
 Reference value :  8.25298e-06
 Reference value :  8.25535e-06
 Reference value :  8.25768e-06
 Reference value :  8.26628e-06
 Reference value :  8.32176e-06
 Reference value :  8.39076e-06
 Reference value :  8.45853e-06
 Reference value :  8.50003e-06
 Reference value :  8.50011e-06
 Reference value :  8.50022e-06
 Reference value :  8.50091e-06
 Reference value :  8.50183e-06
 Reference value :  8.50283e-06
 Reference value :  8.50335e-06
 Reference value :  8.50438e-06
 Reference value :  8.50548e-06
 Reference value :  8.50885e-06
 Reference value :  8.51717e-06
 Reference value :  8.52077e-06
 Reference value :  8.52553e-06
 Reference value :  8.52746e-06
 Reference value :  8.52925e-06
 Reference value :  8.53265e-06
 Reference value :  8.53414e-06
 Reference value :  8.53529e-06
 Reference value :  8.53639e-06
 Reference value :  8.53834e-06
 Reference value :  8.54966e-06
 Reference value :  8.55863e-06
 Reference value :  8.57448e-06
 Reference value :  8.61678e-06
 Reference value :  8.75010e-06
 Reference value :  8.75013e-06
 Reference value :  8.75021e-06
 Reference value :  8.75032e-06
 Reference value :  8.75069e-06
 Reference value :  8.75139e-06
 Reference value :  8.75229e-06
 Reference value :  8.75343e-06
 Reference value :  8.75454e-06
 Reference value :  8.75728e-06
 Reference value :  8.76470e-06
 Reference value :  8.81109e-06
 Reference value :  9.00000e-06
 Reference value :  9.00007e-06
 Reference value :  9.00012e-06
 Reference value :  9.00034e-06
 Reference value :  9.00083e-06
 Reference value :  9.00158e-06
 Reference value :  9.00242e-06
 Reference value :  9.00289e-06
 Reference value :  9.00397e-06
 Reference value :  9.00550e-06
 Reference value :  9.00655e-06
 Reference value :  9.00902e-06
 Reference value :  9.01011e-06
 Reference value :  9.01152e-06
 Reference value :  9.01284e-06
 Reference value :  9.01837e-06
 Reference value :  9.05272e-06
 Reference value :  9.25010e-06
 Reference value :  9.25017e-06
 Reference value :  9.25026e-06
 Reference value :  9.25098e-06
 Reference value :  9.25186e-06
 Reference value :  9.25344e-06
 Reference value :  9.25501e-06
 Reference value :  9.25821e-06
 Reference value :  9.30696e-06
 Reference value :  9.50003e-06
 Reference value :  9.50012e-06
 Reference value :  9.50052e-06
 Reference value :  9.50158e-06
 Reference value :  9.50289e-06
 Reference value :  9.50500e-06
 Reference value :  9.50710e-06
 Reference value :  9.50996e-06
 Reference value :  9.51119e-06
 Reference value :  9.51323e-06
 Reference value :  9.51525e-06
 Reference value :  9.51740e-06
 Reference value :  9.52399e-06
 Reference value :  9.57364e-06
 Reference value :  9.75011e-06
 Reference value :  9.75021e-06
 Reference value :  9.75032e-06
 Reference value :  9.75098e-06
 Reference value :  9.75140e-06
 Reference value :  9.75229e-06
 Reference value :  9.75345e-06
 Reference value :  9.75460e-06
 Reference value :  9.75597e-06
 Reference value :  9.76161e-06
 Reference value :  9.78663e-06
 Reference value :  9.98679e-06
 Reference value :  1.00000e-05
 Reference value :  1.00001e-05
 Reference value :  1.00002e-05
 Reference value :  1.00003e-05
 Reference value :  1.00008e-05
 Reference value :  1.00016e-05
 Reference value :  1.00024e-05
 Reference value :  1.00034e-05
 Reference value :  1.00047e-05
 Reference value :  1.00062e-05
 Reference value :  1.00077e-05
 Reference value :  1.00096e-05
 Reference value :  1.00155e-05
 Reference value :  1.00818e-05
 Reference value :  1.02501e-05
 Reference value :  1.02502e-05
 Reference value :  1.02503e-05
 Reference value :  1.02510e-05
 Reference value :  1.02519e-05
 Reference value :  1.02530e-05
 Reference value :  1.02540e-05
 Reference value :  1.02550e-05
 Reference value :  1.02582e-05
 Reference value :  1.03073e-05
 Reference value :  1.05000e-05
 Reference value :  1.05001e-05
 Reference value :  1.05003e-05
 Reference value :  1.05008e-05
 Reference value :  1.05016e-05
 Reference value :  1.05024e-05
 Reference value :  1.05029e-05
 Reference value :  1.05040e-05
 Reference value :  1.05050e-05
 Reference value :  1.05063e-05
 Reference value :  1.05085e-05
 Reference value :  1.05112e-05
 Reference value :  1.05132e-05
 Reference value :  1.05152e-05
 Reference value :  1.05192e-05
 Reference value :  1.05289e-05
 Reference value :  1.05401e-05
 Reference value :  1.05510e-05
 Reference value :  1.05655e-05
 Reference value :  1.05838e-05
 Reference value :  1.06321e-05
 Reference value :  1.07501e-05
 Reference value :  1.07502e-05
 Reference value :  1.07502e-05
 Reference value :  1.07504e-05
 Reference value :  1.07510e-05
 Reference value :  1.07519e-05
 Reference value :  1.07534e-05
 Reference value :  1.07553e-05
 Reference value :  1.07615e-05
 Reference value :  1.08133e-05
 Reference value :  1.10000e-05
 Reference value :  1.10001e-05
 Reference value :  1.10002e-05
 Reference value :  1.10008e-05
 Reference value :  1.10015e-05
 Reference value :  1.10028e-05
 Reference value :  1.10039e-05
 Reference value :  1.10060e-05
 Reference value :  1.10075e-05
 Reference value :  1.10103e-05
 Reference value :  1.10221e-05
 Reference value :  1.10792e-05
 Reference value :  1.12501e-05
 Reference value :  1.12502e-05
 Reference value :  1.12503e-05
 Reference value :  1.12504e-05
 Reference value :  1.12510e-05
 Reference value :  1.12519e-05
 Reference value :  1.12530e-05
 Reference value :  1.12534e-05
 Reference value :  1.12545e-05
 Reference value :  1.12558e-05
 Reference value :  1.12584e-05
 Reference value :  1.12637e-05
 Reference value :  1.13199e-05
 Reference value :  1.15000e-05
 Reference value :  1.15001e-05
 Reference value :  1.15003e-05
 Reference value :  1.15012e-05
 Reference value :  1.15024e-05
 Reference value :  1.15034e-05
 Reference value :  1.15048e-05
 Reference value :  1.15066e-05
 Reference value :  1.15084e-05
 Reference value :  1.15102e-05
 Reference value :  1.15119e-05
 Reference value :  1.15145e-05
 Reference value :  1.15177e-05
 Reference value :  1.15417e-05
 Reference value :  1.15499e-05
 Reference value :  1.15630e-05
 Reference value :  1.15781e-05
 Reference value :  1.16680e-05
 Reference value :  1.17502e-05
 Reference value :  1.17503e-05
 Reference value :  1.17514e-05
 Reference value :  1.17530e-05
 Reference value :  1.17540e-05
 Reference value :  1.17552e-05
 Reference value :  1.17589e-05
 Reference value :  1.17867e-05
 Reference value :  1.20000e-05
 Reference value :  1.20001e-05
 Reference value :  1.20001e-05
 Reference value :  1.20003e-05
 Reference value :  1.20008e-05
 Reference value :  1.20016e-05
 Reference value :  1.20029e-05
 Reference value :  1.20040e-05
 Reference value :  1.20055e-05
 Reference value :  1.20062e-05
 Reference value :  1.20077e-05
 Reference value :  1.20096e-05
 Reference value :  1.20155e-05
 Reference value :  1.20473e-05
 Reference value :  1.22501e-05
 Reference value :  1.22501e-05
 Reference value :  1.22502e-05
 Reference value :  1.22503e-05
 Reference value :  1.22504e-05
 Reference value :  1.22510e-05
 Reference value :  1.22514e-05
 Reference value :  1.22523e-05
 Reference value :  1.22530e-05
 Reference value :  1.22534e-05
 Reference value :  1.22545e-05
 Reference value :  1.22558e-05
 Reference value :  1.22582e-05
 Reference value :  1.22636e-05
 Reference value :  1.22822e-05
 Reference value :  1.23566e-05
 Reference value :  1.25000e-05
 Reference value :  1.25001e-05
 Reference value :  1.25001e-05
 Reference value :  1.25003e-05
 Reference value :  1.25008e-05
 Reference value :  1.25016e-05
 Reference value :  1.25029e-05
 Reference value :  1.25040e-05
 Reference value :  1.25050e-05
 Reference value :  1.25063e-05
 Reference value :  1.25085e-05
 Reference value :  1.25112e-05
 Reference value :  1.25122e-05
 Reference value :  1.25143e-05
 Reference value :  1.25163e-05
 Reference value :  1.25208e-05
 Reference value :  1.25318e-05
 Reference value :  1.25349e-05
 Reference value :  1.25408e-05
 Reference value :  1.25470e-05
 Reference value :  1.25667e-05
 Reference value :  1.25953e-05
 Reference value :  1.26920e-05
 Reference value :  1.27501e-05
 Reference value :  1.27502e-05
 Reference value :  1.27503e-05
 Reference value :  1.27510e-05
 Reference value :  1.27514e-05
 Reference value :  1.27530e-05
 Reference value :  1.27539e-05
 Reference value :  1.27553e-05
 Reference value :  1.27588e-05
 Reference value :  1.27857e-05
 Reference value :  1.30000e-05
 Reference value :  1.30001e-05
 Reference value :  1.30001e-05
 Reference value :  1.30003e-05
 Reference value :  1.30008e-05
 Reference value :  1.30015e-05
 Reference value :  1.30028e-05
 Reference value :  1.30046e-05
 Reference value :  1.30060e-05
 Reference value :  1.30075e-05
 Reference value :  1.30103e-05
 Reference value :  1.30221e-05
 Reference value :  1.31426e-05
 Reference value :  1.32501e-05
 Reference value :  1.32502e-05
 Reference value :  1.32503e-05
 Reference value :  1.32510e-05
 Reference value :  1.32514e-05
 Reference value :  1.32530e-05
 Reference value :  1.32540e-05
 Reference value :  1.32550e-05
 Reference value :  1.32566e-05
 Reference value :  1.32596e-05
 Reference value :  1.32899e-05
 Reference value :  1.35000e-05
 Reference value :  1.35001e-05
 Reference value :  1.35003e-05
 Reference value :  1.35012e-05
 Reference value :  1.35024e-05
 Reference value :  1.35034e-05
 Reference value :  1.35044e-05
 Reference value :  1.35053e-05
 Reference value :  1.35076e-05
 Reference value :  1.35093e-05
 Reference value :  1.35102e-05
 Reference value :  1.35119e-05
 Reference value :  1.35145e-05
 Reference value :  1.35177e-05
 Reference value :  1.35244e-05
 Reference value :  1.35353e-05
 Reference value :  1.35406e-05
 Reference value :  1.35503e-05
 Reference value :  1.35893e-05
 Reference value :  1.36950e-05
 Reference value :  1.37501e-05
 Reference value :  1.37502e-05
 Reference value :  1.37502e-05
 Reference value :  1.37504e-05
 Reference value :  1.37514e-05
 Reference value :  1.37530e-05
 Reference value :  1.37539e-05
 Reference value :  1.37553e-05
 Reference value :  1.37588e-05
 Reference value :  1.37719e-05
 Reference value :  1.38025e-05
 Reference value :  1.38560e-05
 Reference value :  1.40000e-05
 Reference value :  1.40002e-05
 Reference value :  1.40008e-05
 Reference value :  1.40019e-05
 Reference value :  1.40033e-05
 Reference value :  1.40054e-05
 Reference value :  1.40066e-05
 Reference value :  1.40075e-05
 Reference value :  1.40103e-05
 Reference value :  1.40221e-05
 Reference value :  1.40788e-05
 Reference value :  1.42501e-05
 Reference value :  1.42502e-05
 Reference value :  1.42503e-05
 Reference value :  1.42507e-05
 Reference value :  1.42514e-05
 Reference value :  1.42523e-05
 Reference value :  1.42534e-05
 Reference value :  1.42545e-05
 Reference value :  1.42558e-05
 Reference value :  1.42575e-05
 Reference value :  1.42596e-05
 Reference value :  1.42673e-05
 Reference value :  1.43185e-05
 Reference value :  1.45000e-05
 Reference value :  1.45000e-05
 Reference value :  1.45001e-05
 Reference value :  1.45001e-05
 Reference value :  1.45002e-05
 Reference value :  1.45005e-05
 Reference value :  1.45012e-05
 Reference value :  1.45020e-05
 Reference value :  1.45029e-05
 Reference value :  1.45039e-05
 Reference value :  1.45048e-05
 Reference value :  1.45066e-05
 Reference value :  1.45085e-05
 Reference value :  1.45102e-05
 Reference value :  1.45119e-05
 Reference value :  1.45135e-05
 Reference value :  1.45152e-05
 Reference value :  1.45188e-05
 Reference value :  1.45232e-05
 Reference value :  1.45248e-05
 Reference value :  1.45285e-05
 Reference value :  1.45573e-05
 Reference value :  1.47501e-05
 Reference value :  1.47502e-05
 Reference value :  1.47503e-05
 Reference value :  1.47507e-05
 Reference value :  1.47514e-05
 Reference value :  1.47519e-05
 Reference value :  1.47523e-05
 Reference value :  1.47530e-05
 Reference value :  1.47534e-05
 Reference value :  1.47546e-05
 Reference value :  1.47560e-05
 Reference value :  1.47616e-05
 Reference value :  1.47866e-05
 Reference value :  1.49863e-05
 Reference value :  1.50000e-05
 Reference value :  1.50001e-05
 Reference value :  1.50002e-05
 Reference value :  1.50005e-05
 Reference value :  1.50012e-05
 Reference value :  1.50020e-05
 Reference value :  1.50029e-05
 Reference value :  1.50034e-05
 Reference value :  1.50047e-05
 Reference value :  1.50055e-05
 Reference value :  1.50062e-05
 Reference value :  1.50077e-05
 Reference value :  1.50096e-05
 Reference value :  1.50155e-05
 Reference value :  1.50816e-05
 Reference value :  1.52501e-05
 Reference value :  1.52502e-05
 Reference value :  1.52503e-05
 Reference value :  1.52507e-05
 Reference value :  1.52514e-05
 Reference value :  1.52530e-05
 Reference value :  1.52540e-05
 Reference value :  1.52558e-05
 Reference value :  1.52582e-05
 Reference value :  1.52636e-05
 Reference value :  1.52822e-05
 Reference value :  1.54563e-05
 Reference value :  1.55007e-05
 Reference value :  1.55022e-05
 Reference value :  1.55030e-05
 Reference value :  1.55044e-05
 Reference value :  1.55057e-05
 Reference value :  1.55071e-05
 Reference value :  1.55097e-05
 Reference value :  1.55109e-05
 Reference value :  1.55131e-05
 Reference value :  1.55148e-05
 Reference value :  1.55170e-05
 Reference value :  1.55223e-05
 Reference value :  1.55327e-05
 Reference value :  1.55380e-05
 Reference value :  1.55478e-05
 Reference value :  1.55690e-05
 Reference value :  1.56562e-05
 Reference value :  1.57501e-05
 Reference value :  1.57502e-05
 Reference value :  1.57503e-05
 Reference value :  1.57507e-05
 Reference value :  1.57514e-05
 Reference value :  1.57529e-05
 Reference value :  1.57539e-05
 Reference value :  1.57559e-05
 Reference value :  1.57587e-05
 Reference value :  1.57713e-05
 Reference value :  1.58636e-05
 Reference value :  1.60000e-05
 Reference value :  1.60001e-05
 Reference value :  1.60002e-05
 Reference value :  1.60008e-05
 Reference value :  1.60015e-05
 Reference value :  1.60028e-05
 Reference value :  1.60046e-05
 Reference value :  1.60060e-05
 Reference value :  1.60075e-05
 Reference value :  1.60103e-05
 Reference value :  1.60167e-05
 Reference value :  1.60476e-05
 Reference value :  1.62501e-05
 Reference value :  1.62502e-05
 Reference value :  1.62502e-05
 Reference value :  1.62504e-05
 Reference value :  1.62510e-05
 Reference value :  1.62514e-05
 Reference value :  1.62523e-05
 Reference value :  1.62534e-05
 Reference value :  1.62545e-05
 Reference value :  1.62558e-05
 Reference value :  1.62583e-05
 Reference value :  1.62671e-05
 Reference value :  1.64877e-05
 Reference value :  1.65001e-05
 Reference value :  1.65001e-05
 Reference value :  1.65003e-05
 Reference value :  1.65008e-05
 Reference value :  1.65016e-05
 Reference value :  1.65024e-05
 Reference value :  1.65034e-05
 Reference value :  1.65044e-05
 Reference value :  1.65053e-05
 Reference value :  1.65074e-05
 Reference value :  1.65099e-05
 Reference value :  1.65150e-05
 Reference value :  1.65217e-05
 Reference value :  1.65293e-05
 Reference value :  1.65654e-05
 Reference value :  1.67501e-05
 Reference value :  1.67502e-05
 Reference value :  1.67504e-05
 Reference value :  1.67514e-05
 Reference value :  1.67530e-05
 Reference value :  1.67553e-05
 Reference value :  1.67577e-05
 Reference value :  1.67750e-05
 Reference value :  1.68821e-05
 Reference value :  1.70021e-05
 Reference value :  1.70085e-05
 Reference value :  1.70155e-05
 Reference value :  1.70229e-05
 Reference value :  1.70256e-05
 Reference value :  1.70280e-05
 Reference value :  1.70315e-05
 Reference value :  1.70347e-05
 Reference value :  1.70420e-05
 Reference value :  1.70574e-05
 Reference value :  1.71059e-05
 Reference value :  1.72310e-05
 Reference value :  1.72501e-05
 Reference value :  1.72502e-05
 Reference value :  1.72503e-05
 Reference value :  1.72510e-05
 Reference value :  1.72518e-05
 Reference value :  1.72528e-05
 Reference value :  1.72538e-05
 Reference value :  1.72548e-05
 Reference value :  1.72565e-05
 Reference value :  1.72628e-05
 Reference value :  1.72920e-05
 Reference value :  1.75000e-05
 Reference value :  1.75001e-05
 Reference value :  1.75002e-05
 Reference value :  1.75005e-05
 Reference value :  1.75012e-05
 Reference value :  1.75016e-05
 Reference value :  1.75029e-05
 Reference value :  1.75040e-05
 Reference value :  1.75055e-05
 Reference value :  1.75065e-05
 Reference value :  1.75090e-05
 Reference value :  1.75115e-05
 Reference value :  1.75141e-05
 Reference value :  1.75160e-05
 Reference value :  1.75360e-05
 Reference value :  1.76360e-05
 Reference value :  1.77501e-05
 Reference value :  1.77502e-05
 Reference value :  1.77503e-05
 Reference value :  1.77510e-05
 Reference value :  1.77519e-05
 Reference value :  1.77534e-05
 Reference value :  1.77545e-05
 Reference value :  1.77558e-05
 Reference value :  1.77602e-05
 Reference value :  1.78070e-05
 Reference value :  1.80000e-05
 Reference value :  1.80007e-05
 Reference value :  1.80022e-05
 Reference value :  1.80030e-05
 Reference value :  1.80044e-05
 Reference value :  1.80050e-05
 Reference value :  1.80062e-05
 Reference value :  1.80094e-05
 Reference value :  1.80107e-05
 Reference value :  1.80121e-05
 Reference value :  1.80130e-05
 Reference value :  1.80148e-05
 Reference value :  1.80170e-05
 Reference value :  1.80218e-05
 Reference value :  1.80404e-05
 Reference value :  1.81483e-05
 Reference value :  1.82501e-05
 Reference value :  1.82502e-05
 Reference value :  1.82503e-05
 Reference value :  1.82507e-05
 Reference value :  1.82523e-05
 Reference value :  1.82534e-05
 Reference value :  1.82545e-05
 Reference value :  1.82585e-05
 Reference value :  1.82835e-05
 Reference value :  1.85000e-05
 Reference value :  1.85001e-05
 Reference value :  1.85003e-05
 Reference value :  1.85012e-05
 Reference value :  1.85024e-05
 Reference value :  1.85034e-05
 Reference value :  1.85055e-05
 Reference value :  1.85069e-05
 Reference value :  1.85096e-05
 Reference value :  1.85294e-05
 Reference value :  1.87501e-05
 Reference value :  1.87502e-05
 Reference value :  1.87504e-05
 Reference value :  1.87514e-05
 Reference value :  1.87530e-05
 Reference value :  1.87545e-05
 Reference value :  1.87583e-05
 Reference value :  1.88591e-05
 Reference value :  1.90000e-05
 Reference value :  1.90001e-05
 Reference value :  1.90003e-05
 Reference value :  1.90016e-05
 Reference value :  1.90029e-05
 Reference value :  1.90045e-05
 Reference value :  1.90063e-05
 Reference value :  1.90100e-05
 Reference value :  1.90122e-05
 Reference value :  1.90143e-05
 Reference value :  1.90163e-05
 Reference value :  1.90208e-05
 Reference value :  1.90335e-05
 Reference value :  1.90393e-05
 Reference value :  1.90502e-05
 Reference value :  1.90601e-05
 Reference value :  1.90791e-05
 Reference value :  1.91145e-05
 Reference value :  1.92324e-05
 Reference value :  1.92501e-05
 Reference value :  1.92502e-05
 Reference value :  1.92503e-05
 Reference value :  1.92507e-05
 Reference value :  1.92514e-05
 Reference value :  1.92530e-05
 Reference value :  1.92546e-05
 Reference value :  1.92649e-05
 Reference value :  1.95000e-05
 Reference value :  1.95004e-05
 Reference value :  1.95015e-05
 Reference value :  1.95028e-05
 Reference value :  1.95040e-05
 Reference value :  1.95056e-05
 Reference value :  1.95063e-05
 Reference value :  1.95078e-05
 Reference value :  1.95097e-05
 Reference value :  1.95164e-05
 Reference value :  1.95512e-05
 Reference value :  1.97501e-05
 Reference value :  1.97501e-05
 Reference value :  1.97502e-05
 Reference value :  1.97503e-05
 Reference value :  1.97504e-05
 Reference value :  1.97510e-05
 Reference value :  1.97514e-05
 Reference value :  1.97523e-05
 Reference value :  1.97534e-05
 Reference value :  1.97545e-05
 Reference value :  1.97558e-05
 Reference value :  1.97575e-05
 Reference value :  1.97596e-05
 Reference value :  1.97636e-05
 Reference value :  1.97747e-05
 Reference value :  1.98784e-05
 Reference value :  2.00000e-05
 Reference value :  2.00001e-05
 Reference value :  2.00001e-05
 Reference value :  2.00002e-05
 Reference value :  2.00008e-05
 Reference value :  2.00016e-05
 Reference value :  2.00024e-05
 Reference value :  2.00034e-05
 Reference value :  2.00039e-05
 Reference value :  2.00048e-05
 Reference value :  2.00059e-05
 Reference value :  2.00076e-05
 Reference value :  2.00084e-05
 Reference value :  2.00093e-05
 Reference value :  2.00102e-05
 Reference value :  2.00111e-05
 Reference value :  2.00119e-05
 Reference value :  2.00136e-05
 Reference value :  2.00154e-05
 Reference value :  2.00174e-05
 Reference value :  2.00242e-05
 Reference value :  2.00456e-05
 Reference value :  2.00537e-05
 Reference value :  2.00622e-05
 Reference value :  2.00665e-05
 Reference value :  2.00752e-05
 Reference value :  2.00863e-05
 Reference value :  2.01252e-05
 Reference value :  2.02298e-05
 Reference value :  2.02501e-05
 Reference value :  2.02502e-05
 Reference value :  2.02504e-05
 Reference value :  2.02510e-05
 Reference value :  2.02519e-05
 Reference value :  2.02530e-05
 Reference value :  2.02540e-05
 Reference value :  2.02546e-05
 Reference value :  2.02560e-05
 Reference value :  2.02589e-05
 Reference value :  2.02652e-05
 Reference value :  2.02867e-05
 Reference value :  2.04871e-05
 Reference value :  2.05002e-05
 Reference value :  2.05009e-05
 Reference value :  2.05015e-05
 Reference value :  2.05023e-05
 Reference value :  2.05034e-05
 Reference value :  2.05047e-05
 Reference value :  2.05063e-05
 Reference value :  2.05077e-05
 Reference value :  2.05096e-05
 Reference value :  2.05166e-05
 Reference value :  2.05596e-05
 Reference value :  2.07501e-05
 Reference value :  2.07502e-05
 Reference value :  2.07502e-05
 Reference value :  2.07504e-05
 Reference value :  2.07510e-05
 Reference value :  2.07514e-05
 Reference value :  2.07523e-05
 Reference value :  2.07530e-05
 Reference value :  2.07534e-05
 Reference value :  2.07545e-05
 Reference value :  2.07558e-05
 Reference value :  2.07582e-05
 Reference value :  2.07697e-05
 Reference value :  2.08067e-05
 Reference value :  2.10000e-05
 Reference value :  2.10000e-05
 Reference value :  2.10001e-05
 Reference value :  2.10001e-05
 Reference value :  2.10002e-05
 Reference value :  2.10005e-05
 Reference value :  2.10008e-05
 Reference value :  2.10016e-05
 Reference value :  2.10024e-05
 Reference value :  2.10029e-05
 Reference value :  2.10040e-05
 Reference value :  2.10050e-05
 Reference value :  2.10071e-05
 Reference value :  2.10100e-05
 Reference value :  2.10112e-05
 Reference value :  2.10122e-05
 Reference value :  2.10143e-05
 Reference value :  2.10163e-05
 Reference value :  2.10191e-05
 Reference value :  2.10271e-05
 Reference value :  2.10341e-05
 Reference value :  2.10403e-05
 Reference value :  2.10470e-05
 Reference value :  2.10667e-05
 Reference value :  2.10966e-05
 Reference value :  2.11982e-05
 Reference value :  2.12501e-05
 Reference value :  2.12502e-05
 Reference value :  2.12504e-05
 Reference value :  2.12514e-05
 Reference value :  2.12530e-05
 Reference value :  2.12539e-05
 Reference value :  2.12553e-05
 Reference value :  2.12588e-05
 Reference value :  2.12719e-05
 Reference value :  2.14797e-05
 Reference value :  2.15000e-05
 Reference value :  2.15001e-05
 Reference value :  2.15002e-05
 Reference value :  2.15008e-05
 Reference value :  2.15015e-05
 Reference value :  2.15028e-05
 Reference value :  2.15046e-05
 Reference value :  2.15060e-05
 Reference value :  2.15075e-05
 Reference value :  2.15092e-05
 Reference value :  2.15114e-05
 Reference value :  2.15316e-05
 Reference value :  2.17501e-05
 Reference value :  2.17502e-05
 Reference value :  2.17502e-05
 Reference value :  2.17503e-05
 Reference value :  2.17507e-05
 Reference value :  2.17514e-05
 Reference value :  2.17523e-05
 Reference value :  2.17534e-05
 Reference value :  2.17545e-05
 Reference value :  2.17558e-05
 Reference value :  2.17584e-05
 Reference value :  2.17610e-05
 Reference value :  2.17899e-05
 Reference value :  2.20000e-05
 Reference value :  2.20000e-05
 Reference value :  2.20001e-05
 Reference value :  2.20002e-05
 Reference value :  2.20008e-05
 Reference value :  2.20016e-05
 Reference value :  2.20024e-05
 Reference value :  2.20034e-05
 Reference value :  2.20044e-05
 Reference value :  2.20053e-05
 Reference value :  2.20066e-05
 Reference value :  2.20076e-05
 Reference value :  2.20093e-05
 Reference value :  2.20102e-05
 Reference value :  2.20119e-05
 Reference value :  2.20135e-05
 Reference value :  2.20162e-05
 Reference value :  2.20188e-05
 Reference value :  2.20271e-05
 Reference value :  2.20358e-05
 Reference value :  2.20404e-05
 Reference value :  2.20468e-05
 Reference value :  2.20531e-05
 Reference value :  2.20781e-05
 Reference value :  2.21432e-05
 Reference value :  2.21778e-05
 Reference value :  2.22089e-05
 Reference value :  2.22501e-05
 Reference value :  2.22503e-05
 Reference value :  2.22510e-05
 Reference value :  2.22523e-05
 Reference value :  2.22539e-05
 Reference value :  2.22588e-05
 Reference value :  2.23700e-05
 Reference value :  2.25000e-05
 Reference value :  2.25001e-05
 Reference value :  2.25005e-05
 Reference value :  2.25015e-05
 Reference value :  2.25028e-05
 Reference value :  2.25046e-05
 Reference value :  2.25060e-05
 Reference value :  2.25084e-05
 Reference value :  2.25103e-05
 Reference value :  2.25221e-05
 Reference value :  2.26422e-05
 Reference value :  2.27501e-05
 Reference value :  2.27502e-05
 Reference value :  2.27507e-05
 Reference value :  2.27514e-05
 Reference value :  2.27530e-05
 Reference value :  2.27540e-05
 Reference value :  2.27550e-05
 Reference value :  2.27566e-05
 Reference value :  2.27596e-05
 Reference value :  2.28191e-05
 Reference value :  2.30001e-05
 Reference value :  2.30001e-05
 Reference value :  2.30003e-05
 Reference value :  2.30008e-05
 Reference value :  2.30016e-05
 Reference value :  2.30024e-05
 Reference value :  2.30034e-05
 Reference value :  2.30044e-05
 Reference value :  2.30053e-05
 Reference value :  2.30076e-05
 Reference value :  2.30101e-05
 Reference value :  2.30127e-05
 Reference value :  2.30164e-05
 Reference value :  2.30235e-05
 Reference value :  2.30346e-05
 Reference value :  2.30498e-05
 Reference value :  2.32017e-05
 Reference value :  2.32502e-05
 Reference value :  2.32503e-05
 Reference value :  2.32510e-05
 Reference value :  2.32519e-05
 Reference value :  2.32530e-05
 Reference value :  2.32540e-05
 Reference value :  2.32560e-05
 Reference value :  2.32616e-05
 Reference value :  2.33154e-05
 Reference value :  2.35000e-05
 Reference value :  2.35001e-05
 Reference value :  2.35001e-05
 Reference value :  2.35003e-05
 Reference value :  2.35008e-05
 Reference value :  2.35016e-05
 Reference value :  2.35029e-05
 Reference value :  2.35055e-05
 Reference value :  2.35077e-05
 Reference value :  2.35154e-05
 Reference value :  2.36449e-05
 Reference value :  2.37502e-05
 Reference value :  2.37504e-05
 Reference value :  2.37514e-05
 Reference value :  2.37534e-05
 Reference value :  2.37545e-05
 Reference value :  2.37566e-05
 Reference value :  2.38065e-05
 Reference value :  2.39128e-05
 Reference value :  2.39674e-05
 Reference value :  2.40000e-05
 Reference value :  2.40002e-05
 Reference value :  2.40008e-05
 Reference value :  2.40020e-05
 Reference value :  2.40034e-05
 Reference value :  2.40044e-05
 Reference value :  2.40054e-05
 Reference value :  2.40077e-05
 Reference value :  2.40093e-05
 Reference value :  2.40111e-05
 Reference value :  2.40127e-05
 Reference value :  2.40156e-05
 Reference value :  2.40197e-05
 Reference value :  2.40345e-05
 Reference value :  2.41606e-05
 Reference value :  2.42502e-05
 Reference value :  2.42503e-05
 Reference value :  2.42510e-05
 Reference value :  2.42519e-05
 Reference value :  2.42534e-05
 Reference value :  2.42546e-05
 Reference value :  2.42574e-05
 Reference value :  2.43151e-05
 Reference value :  2.45000e-05
 Reference value :  2.45002e-05
 Reference value :  2.45008e-05
 Reference value :  2.45020e-05
 Reference value :  2.45029e-05
 Reference value :  2.45040e-05
 Reference value :  2.45055e-05
 Reference value :  2.45062e-05
 Reference value :  2.45077e-05
 Reference value :  2.45096e-05
 Reference value :  2.45205e-05
 Reference value :  2.45823e-05
 Reference value :  2.47501e-05
 Reference value :  2.47502e-05
 Reference value :  2.47507e-05
 Reference value :  2.47519e-05
 Reference value :  2.47534e-05
 Reference value :  2.47550e-05
 Reference value :  2.47602e-05
 Reference value :  2.48562e-05
 Reference value :  2.50001e-05
 Reference value :  2.50002e-05
 Reference value :  2.50012e-05
 Reference value :  2.50020e-05
 Reference value :  2.50040e-05
 Reference value :  2.50056e-05
 Reference value :  2.50079e-05
 Reference value :  2.50226e-05
 Reference value :  2.52501e-05
 Reference value :  2.52502e-05
 Reference value :  2.52510e-05
 Reference value :  2.52519e-05
 Reference value :  2.52530e-05
 Reference value :  2.52553e-05
 Reference value :  2.52577e-05
 Reference value :  2.52662e-05
 Reference value :  2.53217e-05
 Reference value :  2.55021e-05
 Reference value :  2.55086e-05
 Reference value :  2.55132e-05
 Reference value :  2.55189e-05
 Reference value :  2.55229e-05
 Reference value :  2.55256e-05
 Reference value :  2.55280e-05
 Reference value :  2.55299e-05
 Reference value :  2.55330e-05
 Reference value :  2.55387e-05
 Reference value :  2.55510e-05
 Reference value :  2.55885e-05
 Reference value :  2.56391e-05
 Reference value :  2.57501e-05
 Reference value :  2.57502e-05
 Reference value :  2.57502e-05
 Reference value :  2.57507e-05
 Reference value :  2.57514e-05
 Reference value :  2.57522e-05
 Reference value :  2.57533e-05
 Reference value :  2.57543e-05
 Reference value :  2.57556e-05
 Reference value :  2.57598e-05
 Reference value :  2.57768e-05
 Reference value :  2.58813e-05
 Reference value :  2.60000e-05
 Reference value :  2.60001e-05
 Reference value :  2.60002e-05
 Reference value :  2.60008e-05
 Reference value :  2.60016e-05
 Reference value :  2.60029e-05
 Reference value :  2.60040e-05
 Reference value :  2.60065e-05
 Reference value :  2.60090e-05
 Reference value :  2.60115e-05
 Reference value :  2.60141e-05
 Reference value :  2.60263e-05
 Reference value :  2.61360e-05
 Reference value :  2.62501e-05
 Reference value :  2.62502e-05
 Reference value :  2.62502e-05
 Reference value :  2.62504e-05
 Reference value :  2.62509e-05
 Reference value :  2.62519e-05
 Reference value :  2.62530e-05
 Reference value :  2.62535e-05
 Reference value :  2.62545e-05
 Reference value :  2.62558e-05
 Reference value :  2.62604e-05
 Reference value :  2.62832e-05
 Reference value :  2.64649e-05
 Reference value :  2.65006e-05
 Reference value :  2.65024e-05
 Reference value :  2.65036e-05
 Reference value :  2.65046e-05
 Reference value :  2.65056e-05
 Reference value :  2.65083e-05
 Reference value :  2.65112e-05
 Reference value :  2.65134e-05
 Reference value :  2.65155e-05
 Reference value :  2.65176e-05
 Reference value :  2.65241e-05
 Reference value :  2.65478e-05
 Reference value :  2.66814e-05
 Reference value :  2.67501e-05
 Reference value :  2.67502e-05
 Reference value :  2.67507e-05
 Reference value :  2.67514e-05
 Reference value :  2.67530e-05
 Reference value :  2.67540e-05
 Reference value :  2.67552e-05
 Reference value :  2.67616e-05
 Reference value :  2.68732e-05
 Reference value :  2.70000e-05
 Reference value :  2.70001e-05
 Reference value :  2.70005e-05
 Reference value :  2.70012e-05
 Reference value :  2.70020e-05
 Reference value :  2.70029e-05
 Reference value :  2.70040e-05
 Reference value :  2.70055e-05
 Reference value :  2.70062e-05
 Reference value :  2.70077e-05
 Reference value :  2.70124e-05
 Reference value :  2.71427e-05
 Reference value :  2.72502e-05
 Reference value :  2.72503e-05
 Reference value :  2.72510e-05
 Reference value :  2.72519e-05
 Reference value :  2.72530e-05
 Reference value :  2.72540e-05
 Reference value :  2.72550e-05
 Reference value :  2.72566e-05
 Reference value :  2.72635e-05
 Reference value :  2.73068e-05
 Reference value :  2.75000e-05
 Reference value :  2.75000e-05
 Reference value :  2.75001e-05
 Reference value :  2.75001e-05
 Reference value :  2.75003e-05
 Reference value :  2.75008e-05
 Reference value :  2.75016e-05
 Reference value :  2.75024e-05
 Reference value :  2.75029e-05
 Reference value :  2.75040e-05
 Reference value :  2.75050e-05
 Reference value :  2.75063e-05
 Reference value :  2.75085e-05
 Reference value :  2.75100e-05
 Reference value :  2.75112e-05
 Reference value :  2.75122e-05
 Reference value :  2.75143e-05
 Reference value :  2.75163e-05
 Reference value :  2.75192e-05
 Reference value :  2.75240e-05
 Reference value :  2.75381e-05
 Reference value :  2.75434e-05
 Reference value :  2.75472e-05
 Reference value :  2.75559e-05
 Reference value :  2.75665e-05
 Reference value :  2.75884e-05
 Reference value :  2.76538e-05
 Reference value :  2.77501e-05
 Reference value :  2.77502e-05
 Reference value :  2.77503e-05
 Reference value :  2.77510e-05
 Reference value :  2.77514e-05
 Reference value :  2.77523e-05
 Reference value :  2.77534e-05
 Reference value :  2.77553e-05
 Reference value :  2.77588e-05
 Reference value :  2.77856e-05
 Reference value :  2.80000e-05
 Reference value :  2.80004e-05
 Reference value :  2.80015e-05
 Reference value :  2.80023e-05
 Reference value :  2.80040e-05
 Reference value :  2.80056e-05
 Reference value :  2.80064e-05
 Reference value :  2.80079e-05
 Reference value :  2.80097e-05
 Reference value :  2.80164e-05
 Reference value :  2.80927e-05
 Reference value :  2.82501e-05
 Reference value :  2.82502e-05
 Reference value :  2.82504e-05
 Reference value :  2.82510e-05
 Reference value :  2.82519e-05
 Reference value :  2.82530e-05
 Reference value :  2.82534e-05
 Reference value :  2.82545e-05
 Reference value :  2.82558e-05
 Reference value :  2.82583e-05
 Reference value :  2.82673e-05
 Reference value :  2.84973e-05
 Reference value :  2.85001e-05
 Reference value :  2.85002e-05
 Reference value :  2.85005e-05
 Reference value :  2.85016e-05
 Reference value :  2.85029e-05
 Reference value :  2.85039e-05
 Reference value :  2.85048e-05
 Reference value :  2.85066e-05
 Reference value :  2.85084e-05
 Reference value :  2.85102e-05
 Reference value :  2.85119e-05
 Reference value :  2.85136e-05
 Reference value :  2.85154e-05
 Reference value :  2.85174e-05
 Reference value :  2.85242e-05
 Reference value :  2.85471e-05
 Reference value :  2.85560e-05
 Reference value :  2.85653e-05
 Reference value :  2.85761e-05
 Reference value :  2.85951e-05
 Reference value :  2.86498e-05
 Reference value :  2.87501e-05
 Reference value :  2.87502e-05
 Reference value :  2.87503e-05
 Reference value :  2.87510e-05
 Reference value :  2.87519e-05
 Reference value :  2.87530e-05
 Reference value :  2.87540e-05
 Reference value :  2.87552e-05
 Reference value :  2.87589e-05
 Reference value :  2.87867e-05
 Reference value :  2.90000e-05
 Reference value :  2.90002e-05
 Reference value :  2.90009e-05
 Reference value :  2.90015e-05
 Reference value :  2.90028e-05
 Reference value :  2.90047e-05
 Reference value :  2.90063e-05
 Reference value :  2.90077e-05
 Reference value :  2.90096e-05
 Reference value :  2.90228e-05
 Reference value :  2.92089e-05
 Reference value :  2.92501e-05
 Reference value :  2.92502e-05
 Reference value :  2.92503e-05
 Reference value :  2.92510e-05
 Reference value :  2.92519e-05
 Reference value :  2.92530e-05
 Reference value :  2.92540e-05
 Reference value :  2.92550e-05
 Reference value :  2.92566e-05
 Reference value :  2.92697e-05
 Reference value :  2.94547e-05
 Reference value :  2.95000e-05
 Reference value :  2.95001e-05
 Reference value :  2.95003e-05
 Reference value :  2.95012e-05
 Reference value :  2.95020e-05
 Reference value :  2.95029e-05
 Reference value :  2.95045e-05
 Reference value :  2.95055e-05
 Reference value :  2.95085e-05
 Reference value :  2.95112e-05
 Reference value :  2.95132e-05
 Reference value :  2.95152e-05
 Reference value :  2.95174e-05
 Reference value :  2.95240e-05
 Reference value :  2.95307e-05
 Reference value :  2.95372e-05
 Reference value :  2.95431e-05
 Reference value :  2.95577e-05
 Reference value :  2.95770e-05
 Reference value :  2.96755e-05
 Reference value :  2.97501e-05
 Reference value :  2.97502e-05
 Reference value :  2.97504e-05
 Reference value :  2.97514e-05
 Reference value :  2.97530e-05
 Reference value :  2.97539e-05
 Reference value :  2.97559e-05
 Reference value :  2.97615e-05
 Reference value :  2.98135e-05
 Reference value :  3.00000e-05
 Reference value :  3.00001e-05
 Reference value :  3.00003e-05
 Reference value :  3.00012e-05
 Reference value :  3.00019e-05
 Reference value :  3.00033e-05
 Reference value :  3.00054e-05
 Reference value :  3.00066e-05
 Reference value :  3.00084e-05
 Reference value :  3.00114e-05
 Reference value :  3.00474e-05
 Reference value :  3.02501e-05
 Reference value :  3.02502e-05
 Reference value :  3.02503e-05
 Reference value :  3.02507e-05
 Reference value :  3.02514e-05
 Reference value :  3.02530e-05
 Reference value :  3.02540e-05
 Reference value :  3.02550e-05
 Reference value :  3.02566e-05
 Reference value :  3.02596e-05
 Reference value :  3.02749e-05
 Reference value :  3.04996e-05
 Reference value :  3.05000e-05
 Reference value :  3.05001e-05
 Reference value :  3.05002e-05
 Reference value :  3.05008e-05
 Reference value :  3.05016e-05
 Reference value :  3.05024e-05
 Reference value :  3.05034e-05
 Reference value :  3.05044e-05
 Reference value :  3.05053e-05
 Reference value :  3.05075e-05
 Reference value :  3.05093e-05
 Reference value :  3.05102e-05
 Reference value :  3.05112e-05
 Reference value :  3.05127e-05
 Reference value :  3.05135e-05
 Reference value :  3.05153e-05
 Reference value :  3.05172e-05
 Reference value :  3.05204e-05
 Reference value :  3.05361e-05
 Reference value :  3.05471e-05
 Reference value :  3.05510e-05
 Reference value :  3.05601e-05
 Reference value :  3.05804e-05
 Reference value :  3.05985e-05
 Reference value :  3.06161e-05
 Reference value :  3.06328e-05
 Reference value :  3.07031e-05
 Reference value :  3.07501e-05
 Reference value :  3.07502e-05
 Reference value :  3.07503e-05
 Reference value :  3.07507e-05
 Reference value :  3.07514e-05
 Reference value :  3.07523e-05
 Reference value :  3.07534e-05
 Reference value :  3.07546e-05
 Reference value :  3.07574e-05
 Reference value :  3.07722e-05
 Reference value :  3.09842e-05
 Reference value :  3.10000e-05
 Reference value :  3.10001e-05
 Reference value :  3.10002e-05
 Reference value :  3.10008e-05
 Reference value :  3.10019e-05
 Reference value :  3.10028e-05
 Reference value :  3.10046e-05
 Reference value :  3.10060e-05
 Reference value :  3.10075e-05
 Reference value :  3.10103e-05
 Reference value :  3.10221e-05
 Reference value :  3.11422e-05
 Reference value :  3.12502e-05
 Reference value :  3.12503e-05
 Reference value :  3.12507e-05
 Reference value :  3.12514e-05
 Reference value :  3.12530e-05
 Reference value :  3.12540e-05
 Reference value :  3.12550e-05
 Reference value :  3.12566e-05
 Reference value :  3.12584e-05
 Reference value :  3.12610e-05
 Reference value :  3.12897e-05
 Reference value :  3.14981e-05
 Reference value :  3.15000e-05
 Reference value :  3.15001e-05
 Reference value :  3.15002e-05
 Reference value :  3.15008e-05
 Reference value :  3.15016e-05
 Reference value :  3.15024e-05
 Reference value :  3.15034e-05
 Reference value :  3.15044e-05
 Reference value :  3.15053e-05
 Reference value :  3.15076e-05
 Reference value :  3.15093e-05
 Reference value :  3.15111e-05
 Reference value :  3.15126e-05
 Reference value :  3.15152e-05
 Reference value :  3.15185e-05
 Reference value :  3.15269e-05
 Reference value :  3.15420e-05
 Reference value :  3.16165e-05
 Reference value :  3.16671e-05
 Reference value :  3.17501e-05
 Reference value :  3.17502e-05
 Reference value :  3.17504e-05
 Reference value :  3.17514e-05
 Reference value :  3.17530e-05
 Reference value :  3.17546e-05
 Reference value :  3.17590e-05
 Reference value :  3.17875e-05
 Reference value :  3.20000e-05
 Reference value :  3.20001e-05
 Reference value :  3.20002e-05
 Reference value :  3.20008e-05
 Reference value :  3.20015e-05
 Reference value :  3.20028e-05
 Reference value :  3.20046e-05
 Reference value :  3.20060e-05
 Reference value :  3.20084e-05
 Reference value :  3.20114e-05
 Reference value :  3.20315e-05
 Reference value :  3.22501e-05
 Reference value :  3.22502e-05
 Reference value :  3.22503e-05
 Reference value :  3.22514e-05
 Reference value :  3.22530e-05
 Reference value :  3.22540e-05
 Reference value :  3.22550e-05
 Reference value :  3.22566e-05
 Reference value :  3.22596e-05
 Reference value :  3.22748e-05
 Reference value :  3.24974e-05
 Reference value :  3.25000e-05
 Reference value :  3.25001e-05
 Reference value :  3.25002e-05
 Reference value :  3.25008e-05
 Reference value :  3.25016e-05
 Reference value :  3.25029e-05
 Reference value :  3.25039e-05
 Reference value :  3.25048e-05
 Reference value :  3.25066e-05
 Reference value :  3.25093e-05
 Reference value :  3.25119e-05
 Reference value :  3.25162e-05
 Reference value :  3.25303e-05
 Reference value :  3.26569e-05
 Reference value :  3.27501e-05
 Reference value :  3.27502e-05
 Reference value :  3.27510e-05
 Reference value :  3.27523e-05
 Reference value :  3.27534e-05
 Reference value :  3.27553e-05
 Reference value :  3.27617e-05
 Reference value :  3.28749e-05
 Reference value :  3.30000e-05
 Reference value :  3.30001e-05
 Reference value :  3.30003e-05
 Reference value :  3.30012e-05
 Reference value :  3.30024e-05
 Reference value :  3.30033e-05
 Reference value :  3.30054e-05
 Reference value :  3.30066e-05
 Reference value :  3.30084e-05
 Reference value :  3.30114e-05
 Reference value :  3.30472e-05
 Reference value :  3.32501e-05
 Reference value :  3.32502e-05
 Reference value :  3.32504e-05
 Reference value :  3.32514e-05
 Reference value :  3.32530e-05
 Reference value :  3.32540e-05
 Reference value :  3.32550e-05
 Reference value :  3.32566e-05
 Reference value :  3.32583e-05
 Reference value :  3.32610e-05
 Reference value :  3.32744e-05
 Reference value :  3.34915e-05
 Reference value :  3.35002e-05
 Reference value :  3.35006e-05
 Reference value :  3.35014e-05
 Reference value :  3.35018e-05
 Reference value :  3.35026e-05
 Reference value :  3.35036e-05
 Reference value :  3.35046e-05
 Reference value :  3.35056e-05
 Reference value :  3.35071e-05
 Reference value :  3.35086e-05
 Reference value :  3.35113e-05
 Reference value :  3.35143e-05
 Reference value :  3.35192e-05
 Reference value :  3.35245e-05
 Reference value :  3.35305e-05
 Reference value :  3.35440e-05
 Reference value :  3.36269e-05
 Reference value :  3.37501e-05
 Reference value :  3.37502e-05
 Reference value :  3.37502e-05
 Reference value :  3.37504e-05
 Reference value :  3.37510e-05
 Reference value :  3.37519e-05
 Reference value :  3.37530e-05
 Reference value :  3.37553e-05
 Reference value :  3.37576e-05
 Reference value :  3.37660e-05
 Reference value :  3.38850e-05
 Reference value :  3.40000e-05
 Reference value :  3.40001e-05
 Reference value :  3.40002e-05
 Reference value :  3.40009e-05
 Reference value :  3.40018e-05
 Reference value :  3.40028e-05
 Reference value :  3.40039e-05
 Reference value :  3.40049e-05
 Reference value :  3.40061e-05
 Reference value :  3.40165e-05
 Reference value :  3.40172e-05
 Reference value :  3.40208e-05
 Reference value :  3.40255e-05
 Reference value :  3.40274e-05
 Reference value :  3.40311e-05
 Reference value :  3.40356e-05
 Reference value :  3.40417e-05
 Reference value :  3.40573e-05
 Reference value :  3.41056e-05
 Reference value :  3.42200e-05
 Reference value :  3.42502e-05
 Reference value :  3.42502e-05
 Reference value :  3.42504e-05
 Reference value :  3.42514e-05
 Reference value :  3.42530e-05
 Reference value :  3.42540e-05
 Reference value :  3.42552e-05
 Reference value :  3.42587e-05
 Reference value :  3.42847e-05
 Reference value :  3.44710e-05
 Reference value :  3.45000e-05
 Reference value :  3.45001e-05
 Reference value :  3.45003e-05
 Reference value :  3.45008e-05
 Reference value :  3.45016e-05
 Reference value :  3.45024e-05
 Reference value :  3.45034e-05
 Reference value :  3.45055e-05
 Reference value :  3.45065e-05
 Reference value :  3.45090e-05
 Reference value :  3.45115e-05
 Reference value :  3.45128e-05
 Reference value :  3.45160e-05
 Reference value :  3.45264e-05
 Reference value :  3.45792e-05
 Reference value :  3.47501e-05
 Reference value :  3.47502e-05
 Reference value :  3.47503e-05
 Reference value :  3.47507e-05
 Reference value :  3.47514e-05
 Reference value :  3.47523e-05
 Reference value :  3.47530e-05
 Reference value :  3.47534e-05
 Reference value :  3.47545e-05
 Reference value :  3.47558e-05
 Reference value :  3.47602e-05
 Reference value :  3.47822e-05
 Reference value :  3.49562e-05
 Reference value :  3.50000e-05
 Reference value :  3.50001e-05
 Reference value :  3.50002e-05
 Reference value :  3.50005e-05
 Reference value :  3.50012e-05
 Reference value :  3.50020e-05
 Reference value :  3.50029e-05
 Reference value :  3.50045e-05
 Reference value :  3.50055e-05
 Reference value :  3.50085e-05
 Reference value :  3.50112e-05
 Reference value :  3.50143e-05
 Reference value :  3.50174e-05
 Reference value :  3.50500e-05
 Reference value :  3.52501e-05
 Reference value :  3.52502e-05
 Reference value :  3.52503e-05
 Reference value :  3.52510e-05
 Reference value :  3.52519e-05
 Reference value :  3.52530e-05
 Reference value :  3.52546e-05
 Reference value :  3.52589e-05
 Reference value :  3.52866e-05
 Reference value :  3.55000e-05
 Reference value :  3.55001e-05
 Reference value :  3.55003e-05
 Reference value :  3.55016e-05
 Reference value :  3.55029e-05
 Reference value :  3.55047e-05
 Reference value :  3.55062e-05
 Reference value :  3.55077e-05
 Reference value :  3.55125e-05
 Reference value :  3.55469e-05
 Reference value :  3.57501e-05
 Reference value :  3.57502e-05
 Reference value :  3.57504e-05
 Reference value :  3.57514e-05
 Reference value :  3.57530e-05
 Reference value :  3.57540e-05
 Reference value :  3.57550e-05
 Reference value :  3.57566e-05
 Reference value :  3.57636e-05
 Reference value :  3.58073e-05
 Reference value :  3.60007e-05
 Reference value :  3.60022e-05
 Reference value :  3.60029e-05
 Reference value :  3.60043e-05
 Reference value :  3.60055e-05
 Reference value :  3.60078e-05
 Reference value :  3.60092e-05
 Reference value :  3.60119e-05
 Reference value :  3.60139e-05
 Reference value :  3.60173e-05
 Reference value :  3.60262e-05
 Reference value :  3.60399e-05
 Reference value :  3.60540e-05
 Reference value :  3.60709e-05
 Reference value :  3.61721e-05
 Reference value :  3.62502e-05
 Reference value :  3.62503e-05
 Reference value :  3.62507e-05
 Reference value :  3.62514e-05
 Reference value :  3.62529e-05
 Reference value :  3.62539e-05
 Reference value :  3.62559e-05
 Reference value :  3.62648e-05
 Reference value :  3.63641e-05
 Reference value :  3.65000e-05
 Reference value :  3.65001e-05
 Reference value :  3.65005e-05
 Reference value :  3.65015e-05
 Reference value :  3.65028e-05
 Reference value :  3.65046e-05
 Reference value :  3.65060e-05
 Reference value :  3.65075e-05
 Reference value :  3.65103e-05
 Reference value :  3.65167e-05
 Reference value :  3.65476e-05
 Reference value :  3.67501e-05
 Reference value :  3.67502e-05
 Reference value :  3.67502e-05
 Reference value :  3.67504e-05
 Reference value :  3.67514e-05
 Reference value :  3.67530e-05
 Reference value :  3.67545e-05
 Reference value :  3.67575e-05
 Reference value :  3.67674e-05
 Reference value :  3.70000e-05
 Reference value :  3.70001e-05
 Reference value :  3.70008e-05
 Reference value :  3.70020e-05
 Reference value :  3.70029e-05
 Reference value :  3.70039e-05
 Reference value :  3.70053e-05
 Reference value :  3.70076e-05
 Reference value :  3.70102e-05
 Reference value :  3.70119e-05
 Reference value :  3.70145e-05
 Reference value :  3.70177e-05
 Reference value :  3.70316e-05
 Reference value :  3.70650e-05
 Reference value :  3.70723e-05
 Reference value :  3.70823e-05
 Reference value :  3.70971e-05
 Reference value :  3.71366e-05
 Reference value :  3.72501e-05
 Reference value :  3.72502e-05
 Reference value :  3.72503e-05
 Reference value :  3.72507e-05
 Reference value :  3.72514e-05
 Reference value :  3.72530e-05
 Reference value :  3.72540e-05
 Reference value :  3.72560e-05
 Reference value :  3.72652e-05
 Reference value :  3.73724e-05
 Reference value :  3.75000e-05
 Reference value :  3.75001e-05
 Reference value :  3.75003e-05
 Reference value :  3.75012e-05
 Reference value :  3.75020e-05
 Reference value :  3.75029e-05
 Reference value :  3.75040e-05
 Reference value :  3.75062e-05
 Reference value :  3.75077e-05
 Reference value :  3.75109e-05
 Reference value :  3.75296e-05
 Reference value :  3.77501e-05
 Reference value :  3.77502e-05
 Reference value :  3.77504e-05
 Reference value :  3.77514e-05
 Reference value :  3.77530e-05
 Reference value :  3.77540e-05
 Reference value :  3.77550e-05
 Reference value :  3.77566e-05
 Reference value :  3.77698e-05
 Reference value :  3.80000e-05
 Reference value :  3.80001e-05
 Reference value :  3.80008e-05
 Reference value :  3.80020e-05
 Reference value :  3.80034e-05
 Reference value :  3.80050e-05
 Reference value :  3.80085e-05
 Reference value :  3.80112e-05
 Reference value :  3.80132e-05
 Reference value :  3.80152e-05
 Reference value :  3.80191e-05
 Reference value :  3.80266e-05
 Reference value :  3.80329e-05
 Reference value :  3.80425e-05
 Reference value :  3.80645e-05
 Reference value :  3.82131e-05
 Reference value :  3.82502e-05
 Reference value :  3.82507e-05
 Reference value :  3.82519e-05
 Reference value :  3.82530e-05
 Reference value :  3.82539e-05
 Reference value :  3.82559e-05
 Reference value :  3.82649e-05
 Reference value :  3.84795e-05
 Reference value :  3.85004e-05
 Reference value :  3.85014e-05
 Reference value :  3.85028e-05
 Reference value :  3.85047e-05
 Reference value :  3.85061e-05
 Reference value :  3.85076e-05
 Reference value :  3.85105e-05
 Reference value :  3.85238e-05
 Reference value :  3.86951e-05
 Reference value :  3.87501e-05
 Reference value :  3.87502e-05
 Reference value :  3.87503e-05
 Reference value :  3.87507e-05
 Reference value :  3.87514e-05
 Reference value :  3.87530e-05
 Reference value :  3.87540e-05
 Reference value :  3.87550e-05
 Reference value :  3.87566e-05
 Reference value :  3.87596e-05
 Reference value :  3.87898e-05
 Reference value :  3.90000e-05
 Reference value :  3.90001e-05
 Reference value :  3.90003e-05
 Reference value :  3.90012e-05
 Reference value :  3.90020e-05
 Reference value :  3.90029e-05
 Reference value :  3.90039e-05
 Reference value :  3.90048e-05
 Reference value :  3.90066e-05
 Reference value :  3.90084e-05
 Reference value :  3.90102e-05
 Reference value :  3.90127e-05
 Reference value :  3.90144e-05
 Reference value :  3.90174e-05
 Reference value :  3.90305e-05
 Reference value :  3.90507e-05
 Reference value :  3.90654e-05
 Reference value :  3.90798e-05
 Reference value :  3.91065e-05
 Reference value :  3.91509e-05
 Reference value :  3.91833e-05
 Reference value :  3.92501e-05
 Reference value :  3.92502e-05
 Reference value :  3.92502e-05
 Reference value :  3.92504e-05
 Reference value :  3.92514e-05
 Reference value :  3.92530e-05
 Reference value :  3.92540e-05
 Reference value :  3.92560e-05
 Reference value :  3.92618e-05
 Reference value :  3.93169e-05
 Reference value :  3.95000e-05
 Reference value :  3.95001e-05
 Reference value :  3.95002e-05
 Reference value :  3.95003e-05
 Reference value :  3.95008e-05
 Reference value :  3.95015e-05
 Reference value :  3.95023e-05
 Reference value :  3.95028e-05
 Reference value :  3.95039e-05
 Reference value :  3.95054e-05
 Reference value :  3.95060e-05
 Reference value :  3.95075e-05
 Reference value :  3.95103e-05
 Reference value :  3.95167e-05
 Reference value :  3.95474e-05
 Reference value :  3.97501e-05
 Reference value :  3.97501e-05
 Reference value :  3.97502e-05
 Reference value :  3.97503e-05
 Reference value :  3.97504e-05
 Reference value :  3.97510e-05
 Reference value :  3.97514e-05
 Reference value :  3.97523e-05
 Reference value :  3.97534e-05
 Reference value :  3.97545e-05
 Reference value :  3.97558e-05
 Reference value :  3.97575e-05
 Reference value :  3.97596e-05
 Reference value :  3.97673e-05
 Reference value :  3.98190e-05
 Reference value :  4.00000e-05
 Reference value :  4.00000e-05
 Reference value :  4.00001e-05
 Reference value :  4.00002e-05
 Reference value :  4.00005e-05
 Reference value :  4.00012e-05
 Reference value :  4.00016e-05
 Reference value :  4.00024e-05
 Reference value :  4.00034e-05
 Reference value :  4.00044e-05
 Reference value :  4.00053e-05
 Reference value :  4.00076e-05
 Reference value :  4.00093e-05
 Reference value :  4.00102e-05
 Reference value :  4.00119e-05
 Reference value :  4.00135e-05
 Reference value :  4.00152e-05
 Reference value :  4.00188e-05
 Reference value :  4.00279e-05
 Reference value :  4.00535e-05
 Reference value :  4.01455e-05
 Reference value :  4.02501e-05
 Reference value :  4.02502e-05
 Reference value :  4.02503e-05
 Reference value :  4.02510e-05
 Reference value :  4.02519e-05
 Reference value :  4.02530e-05
 Reference value :  4.02540e-05
 Reference value :  4.02560e-05
 Reference value :  4.02618e-05
 Reference value :  4.03168e-05
 Reference value :  4.05000e-05
 Reference value :  4.05001e-05
 Reference value :  4.05002e-05
 Reference value :  4.05003e-05
 Reference value :  4.05008e-05
 Reference value :  4.05015e-05
 Reference value :  4.05023e-05
 Reference value :  4.05028e-05
 Reference value :  4.05039e-05
 Reference value :  4.05054e-05
 Reference value :  4.05060e-05
 Reference value :  4.05075e-05
 Reference value :  4.05103e-05
 Reference value :  4.05221e-05
 Reference value :  4.06423e-05
 Reference value :  4.07501e-05
 Reference value :  4.07502e-05
 Reference value :  4.07504e-05
 Reference value :  4.07514e-05
 Reference value :  4.07523e-05
 Reference value :  4.07534e-05
 Reference value :  4.07545e-05
 Reference value :  4.07558e-05
 Reference value :  4.07575e-05
 Reference value :  4.07596e-05
 Reference value :  4.07747e-05
 Reference value :  4.09958e-05
 Reference value :  4.10001e-05
 Reference value :  4.10001e-05
 Reference value :  4.10002e-05
 Reference value :  4.10004e-05
 Reference value :  4.10009e-05
 Reference value :  4.10016e-05
 Reference value :  4.10025e-05
 Reference value :  4.10036e-05
 Reference value :  4.10046e-05
 Reference value :  4.10057e-05
 Reference value :  4.10083e-05
 Reference value :  4.10102e-05
 Reference value :  4.10121e-05
 Reference value :  4.10138e-05
 Reference value :  4.10157e-05
 Reference value :  4.10180e-05
 Reference value :  4.10220e-05
 Reference value :  4.10283e-05
 Reference value :  4.10749e-05
 Reference value :  4.12282e-05
 Reference value :  4.12501e-05
 Reference value :  4.12502e-05
 Reference value :  4.12503e-05
 Reference value :  4.12507e-05
 Reference value :  4.12514e-05
 Reference value :  4.12523e-05
 Reference value :  4.12534e-05
 Reference value :  4.12546e-05
 Reference value :  4.12559e-05
 Reference value :  4.12615e-05
 Reference value :  4.12850e-05
 Reference value :  4.14734e-05
 Reference value :  4.15000e-05
 Reference value :  4.15001e-05
 Reference value :  4.15002e-05
 Reference value :  4.15003e-05
 Reference value :  4.15008e-05
 Reference value :  4.15015e-05
 Reference value :  4.15023e-05
 Reference value :  4.15033e-05
 Reference value :  4.15046e-05
 Reference value :  4.15060e-05
 Reference value :  4.15075e-05
 Reference value :  4.15103e-05
 Reference value :  4.15167e-05
 Reference value :  4.15473e-05
 Reference value :  4.17501e-05
 Reference value :  4.17502e-05
 Reference value :  4.17503e-05
 Reference value :  4.17510e-05
 Reference value :  4.17519e-05
 Reference value :  4.17530e-05
 Reference value :  4.17534e-05
 Reference value :  4.17545e-05
 Reference value :  4.17558e-05
 Reference value :  4.17575e-05
 Reference value :  4.17596e-05
 Reference value :  4.17674e-05
 Reference value :  4.18195e-05
 Reference value :  4.20000e-05
 Reference value :  4.20001e-05
 Reference value :  4.20001e-05
 Reference value :  4.20002e-05
 Reference value :  4.20008e-05
 Reference value :  4.20016e-05
 Reference value :  4.20024e-05
 Reference value :  4.20034e-05
 Reference value :  4.20044e-05
 Reference value :  4.20053e-05
 Reference value :  4.20074e-05
 Reference value :  4.20091e-05
 Reference value :  4.20130e-05
 Reference value :  4.20211e-05
 Reference value :  4.20510e-05
 Reference value :  4.21164e-05
 Reference value :  4.21431e-05
 Reference value :  4.22101e-05
 Reference value :  4.22502e-05
 Reference value :  4.22503e-05
 Reference value :  4.22510e-05
 Reference value :  4.22519e-05
 Reference value :  4.22530e-05
 Reference value :  4.22545e-05
 Reference value :  4.22562e-05
 Reference value :  4.22619e-05
 Reference value :  4.23217e-05
 Reference value :  4.25000e-05
 Reference value :  4.25002e-05
 Reference value :  4.25009e-05
 Reference value :  4.25018e-05
 Reference value :  4.25034e-05
 Reference value :  4.25044e-05
 Reference value :  4.25055e-05
 Reference value :  4.25117e-05
 Reference value :  4.25217e-05
 Reference value :  4.25257e-05
 Reference value :  4.25286e-05
 Reference value :  4.25334e-05
 Reference value :  4.25372e-05
 Reference value :  4.25393e-05
 Reference value :  4.25432e-05
 Reference value :  4.25518e-05
 Reference value :  4.25765e-05
 Reference value :  4.26982e-05
 Reference value :  4.27502e-05
 Reference value :  4.27502e-05
 Reference value :  4.27507e-05
 Reference value :  4.27514e-05
 Reference value :  4.27530e-05
 Reference value :  4.27534e-05
 Reference value :  4.27545e-05
 Reference value :  4.27573e-05
 Reference value :  4.27713e-05
 Reference value :  4.29703e-05
 Reference value :  4.30001e-05
 Reference value :  4.30001e-05
 Reference value :  4.30003e-05
 Reference value :  4.30008e-05
 Reference value :  4.30016e-05
 Reference value :  4.30024e-05
 Reference value :  4.30034e-05
 Reference value :  4.30047e-05
 Reference value :  4.30066e-05
 Reference value :  4.30090e-05
 Reference value :  4.30115e-05
 Reference value :  4.30142e-05
 Reference value :  4.30272e-05
 Reference value :  4.31385e-05
 Reference value :  4.32501e-05
 Reference value :  4.32502e-05
 Reference value :  4.32503e-05
 Reference value :  4.32510e-05
 Reference value :  4.32519e-05
 Reference value :  4.32530e-05
 Reference value :  4.32540e-05
 Reference value :  4.32550e-05
 Reference value :  4.32566e-05
 Reference value :  4.32697e-05
 Reference value :  4.34558e-05
 Reference value :  4.35007e-05
 Reference value :  4.35030e-05
 Reference value :  4.35044e-05
 Reference value :  4.35056e-05
 Reference value :  4.35080e-05
 Reference value :  4.35108e-05
 Reference value :  4.35130e-05
 Reference value :  4.35148e-05
 Reference value :  4.35182e-05
 Reference value :  4.35341e-05
 Reference value :  4.36873e-05
 Reference value :  4.37501e-05
 Reference value :  4.37502e-05
 Reference value :  4.37507e-05
 Reference value :  4.37514e-05
 Reference value :  4.37530e-05
 Reference value :  4.37539e-05
 Reference value :  4.37551e-05
 Reference value :  4.37613e-05
 Reference value :  4.38096e-05
 Reference value :  4.40000e-05
 Reference value :  4.40001e-05
 Reference value :  4.40002e-05
 Reference value :  4.40005e-05
 Reference value :  4.40012e-05
 Reference value :  4.40020e-05
 Reference value :  4.40029e-05
 Reference value :  4.40040e-05
 Reference value :  4.40055e-05
 Reference value :  4.40069e-05
 Reference value :  4.40086e-05
 Reference value :  4.40155e-05
 Reference value :  4.40809e-05
 Reference value :  4.42501e-05
 Reference value :  4.42502e-05
 Reference value :  4.42503e-05
 Reference value :  4.42510e-05
 Reference value :  4.42519e-05
 Reference value :  4.42530e-05
 Reference value :  4.42540e-05
 Reference value :  4.42550e-05
 Reference value :  4.42566e-05
 Reference value :  4.42636e-05
 Reference value :  4.43074e-05
 Reference value :  4.45000e-05
 Reference value :  4.45001e-05
 Reference value :  4.45001e-05
 Reference value :  4.45003e-05
 Reference value :  4.45008e-05
 Reference value :  4.45016e-05
 Reference value :  4.45024e-05
 Reference value :  4.45034e-05
 Reference value :  4.45045e-05
 Reference value :  4.45055e-05
 Reference value :  4.45071e-05
 Reference value :  4.45100e-05
 Reference value :  4.45112e-05
 Reference value :  4.45132e-05
 Reference value :  4.45152e-05
 Reference value :  4.45174e-05
 Reference value :  4.45240e-05
 Reference value :  4.45382e-05
 Reference value :  4.45450e-05
 Reference value :  4.45533e-05
 Reference value :  4.45636e-05
 Reference value :  4.45978e-05
 Reference value :  4.47501e-05
 Reference value :  4.47502e-05
 Reference value :  4.47503e-05
 Reference value :  4.47507e-05
 Reference value :  4.47514e-05
 Reference value :  4.47530e-05
 Reference value :  4.47539e-05
 Reference value :  4.47559e-05
 Reference value :  4.47649e-05
 Reference value :  4.48686e-05
 Reference value :  4.50000e-05
 Reference value :  4.50001e-05
 Reference value :  4.50002e-05
 Reference value :  4.50003e-05
 Reference value :  4.50008e-05
 Reference value :  4.50015e-05
 Reference value :  4.50028e-05
 Reference value :  4.50039e-05
 Reference value :  4.50054e-05
 Reference value :  4.50066e-05
 Reference value :  4.50084e-05
 Reference value :  4.50103e-05
 Reference value :  4.50221e-05
 Reference value :  4.51426e-05
 Reference value :  4.52501e-05
 Reference value :  4.52502e-05
 Reference value :  4.52504e-05
 Reference value :  4.52510e-05
 Reference value :  4.52519e-05
 Reference value :  4.52530e-05
 Reference value :  4.52534e-05
 Reference value :  4.52545e-05
 Reference value :  4.52558e-05
 Reference value :  4.52584e-05
 Reference value :  4.52637e-05
 Reference value :  4.53199e-05
 Reference value :  4.55000e-05
 Reference value :  4.55001e-05
 Reference value :  4.55002e-05
 Reference value :  4.55005e-05
 Reference value :  4.55012e-05
 Reference value :  4.55020e-05
 Reference value :  4.55029e-05
 Reference value :  4.55044e-05
 Reference value :  4.55053e-05
 Reference value :  4.55076e-05
 Reference value :  4.55093e-05
 Reference value :  4.55111e-05
 Reference value :  4.55137e-05
 Reference value :  4.55166e-05
 Reference value :  4.55215e-05
 Reference value :  4.55451e-05
 Reference value :  4.55659e-05
 Reference value :  4.55744e-05
 Reference value :  4.55783e-05
 Reference value :  4.55918e-05
 Reference value :  4.56412e-05
 Reference value :  4.57501e-05
 Reference value :  4.57502e-05
 Reference value :  4.57502e-05
 Reference value :  4.57504e-05
 Reference value :  4.57510e-05
 Reference value :  4.57519e-05
 Reference value :  4.57530e-05
 Reference value :  4.57540e-05
 Reference value :  4.57552e-05
 Reference value :  4.57589e-05
 Reference value :  4.57724e-05
 Reference value :  4.58492e-05
 Reference value :  4.59184e-05
 Reference value :  4.59433e-05
 Reference value :  4.59665e-05
 Reference value :  4.60000e-05
 Reference value :  4.60002e-05
 Reference value :  4.60008e-05
 Reference value :  4.60013e-05
 Reference value :  4.60020e-05
 Reference value :  4.60031e-05
 Reference value :  4.60043e-05
 Reference value :  4.60059e-05
 Reference value :  4.60076e-05
 Reference value :  4.60094e-05
 Reference value :  4.60117e-05
 Reference value :  4.60226e-05
 Reference value :  4.60961e-05
 Reference value :  4.62501e-05
 Reference value :  4.62501e-05
 Reference value :  4.62502e-05
 Reference value :  4.62502e-05
 Reference value :  4.62503e-05
 Reference value :  4.62507e-05
 Reference value :  4.62514e-05
 Reference value :  4.62523e-05
 Reference value :  4.62530e-05
 Reference value :  4.62534e-05
 Reference value :  4.62539e-05
 Reference value :  4.62544e-05
 Reference value :  4.62557e-05
 Reference value :  4.62565e-05
 Reference value :  4.62582e-05
 Reference value :  4.62594e-05
 Reference value :  4.62633e-05
 Reference value :  4.62852e-05
 Reference value :  4.64603e-05
 Reference value :  4.65000e-05
 Reference value :  4.65001e-05
 Reference value :  4.65001e-05
 Reference value :  4.65002e-05
 Reference value :  4.65003e-05
 Reference value :  4.65008e-05
 Reference value :  4.65016e-05
 Reference value :  4.65024e-05
 Reference value :  4.65029e-05
 Reference value :  4.65039e-05
 Reference value :  4.65048e-05
 Reference value :  4.65059e-05
 Reference value :  4.65075e-05
 Reference value :  4.65093e-05
 Reference value :  4.65102e-05
 Reference value :  4.65112e-05
 Reference value :  4.65120e-05
 Reference value :  4.65136e-05
 Reference value :  4.65153e-05
 Reference value :  4.65173e-05
 Reference value :  4.65207e-05
 Reference value :  4.65241e-05
 Reference value :  4.65272e-05
 Reference value :  4.65363e-05
 Reference value :  4.65615e-05
 Reference value :  4.66255e-05
 Reference value :  4.67501e-05
 Reference value :  4.67502e-05
 Reference value :  4.67502e-05
 Reference value :  4.67507e-05
 Reference value :  4.67514e-05
 Reference value :  4.67530e-05
[...]
 Reference value :  2.59957e-04
 Reference value :  2.60000e-04
 Reference value :  2.60000e-04
 Reference value :  2.60000e-04
 Reference value :  2.60001e-04
 Reference value :  2.60002e-04
 Reference value :  2.60004e-04
 Reference value :  2.60005e-04
 Reference value :  2.60007e-04
 Reference value :  2.60011e-04
 Reference value :  2.60013e-04
 Reference value :  2.60015e-04
 Reference value :  2.60019e-04
 Reference value :  2.60029e-04
 Reference value :  2.60050e-04
 Reference value :  2.60063e-04
 Reference value :  2.60074e-04
 Reference value :  2.60114e-04
 Reference value :  2.60189e-04
 Reference value :  2.60250e-04
 Reference value :  2.60250e-04
 Reference value :  2.60250e-04
 Reference value :  2.60250e-04
 Reference value :  2.60251e-04
 Reference value :  2.60251e-04
 Reference value :  2.60252e-04
 Reference value :  2.60253e-04
 Reference value :  2.60253e-04
 Reference value :  2.60255e-04
 Reference value :  2.60256e-04
 Reference value :  2.60259e-04
 Reference value :  2.60265e-04
 Reference value :  2.60372e-04
 Reference value :  2.60500e-04
 Reference value :  2.60500e-04
 Reference value :  2.60500e-04
 Reference value :  2.60501e-04
 Reference value :  2.60502e-04
 Reference value :  2.60503e-04
 Reference value :  2.60504e-04
 Reference value :  2.60506e-04
 Reference value :  2.60506e-04
 Reference value :  2.60508e-04
 Reference value :  2.60510e-04
 Reference value :  2.60515e-04
 Reference value :  2.60547e-04
 Reference value :  2.60750e-04
 Reference value :  2.60750e-04
 Reference value :  2.60750e-04
 Reference value :  2.60751e-04
 Reference value :  2.60751e-04
 Reference value :  2.60753e-04
 Reference value :  2.60753e-04
 Reference value :  2.60754e-04
 Reference value :  2.60756e-04
 Reference value :  2.60758e-04
 Reference value :  2.60770e-04
 Reference value :  2.60858e-04
 Reference value :  2.61000e-04
 Reference value :  2.61000e-04
 Reference value :  2.61000e-04
 Reference value :  2.61000e-04
 Reference value :  2.61001e-04
 Reference value :  2.61002e-04
 Reference value :  2.61002e-04
 Reference value :  2.61003e-04
 Reference value :  2.61004e-04
 Reference value :  2.61005e-04
 Reference value :  2.61007e-04
 Reference value :  2.61011e-04
 Reference value :  2.61013e-04
 Reference value :  2.61015e-04
 Reference value :  2.61017e-04
 Reference value :  2.61024e-04
 Reference value :  2.61048e-04
 Reference value :  2.61065e-04
 Reference value :  2.61131e-04
 Reference value :  2.61250e-04
 Reference value :  2.61250e-04
 Reference value :  2.61251e-04
 Reference value :  2.61253e-04
 Reference value :  2.61254e-04
 Reference value :  2.61255e-04
 Reference value :  2.61262e-04
 Reference value :  2.61315e-04
 Reference value :  2.61500e-04
 Reference value :  2.61500e-04
 Reference value :  2.61500e-04
 Reference value :  2.61501e-04
 Reference value :  2.61502e-04
 Reference value :  2.61503e-04
 Reference value :  2.61505e-04
 Reference value :  2.61506e-04
 Reference value :  2.61508e-04
 Reference value :  2.61511e-04
 Reference value :  2.61520e-04
 Reference value :  2.61582e-04
 Reference value :  2.61750e-04
 Reference value :  2.61750e-04
 Reference value :  2.61750e-04
 Reference value :  2.61751e-04
 Reference value :  2.61751e-04
 Reference value :  2.61753e-04
 Reference value :  2.61754e-04
 Reference value :  2.61755e-04
 Reference value :  2.61757e-04
 Reference value :  2.61770e-04
 Reference value :  2.61958e-04
 Reference value :  2.62000e-04
 Reference value :  2.62000e-04
 Reference value :  2.62000e-04
 Reference value :  2.62001e-04
 Reference value :  2.62002e-04
 Reference value :  2.62003e-04
 Reference value :  2.62004e-04
 Reference value :  2.62005e-04
 Reference value :  2.62007e-04
 Reference value :  2.62010e-04
 Reference value :  2.62011e-04
 Reference value :  2.62013e-04
 Reference value :  2.62015e-04
 Reference value :  2.62017e-04
 Reference value :  2.62021e-04
 Reference value :  2.62034e-04
 Reference value :  2.62091e-04
 Reference value :  2.62250e-04
 Reference value :  2.62250e-04
 Reference value :  2.62250e-04
 Reference value :  2.62250e-04
 Reference value :  2.62251e-04
 Reference value :  2.62251e-04
 Reference value :  2.62252e-04
 Reference value :  2.62253e-04
 Reference value :  2.62255e-04
 Reference value :  2.62257e-04
 Reference value :  2.62265e-04
 Reference value :  2.62315e-04
 Reference value :  2.62500e-04
 Reference value :  2.62500e-04
 Reference value :  2.62500e-04
 Reference value :  2.62500e-04
 Reference value :  2.62501e-04
 Reference value :  2.62502e-04
 Reference value :  2.62502e-04
 Reference value :  2.62503e-04
 Reference value :  2.62505e-04
 Reference value :  2.62506e-04
 Reference value :  2.62508e-04
 Reference value :  2.62511e-04
 Reference value :  2.62547e-04
 Reference value :  2.62750e-04
 Reference value :  2.62750e-04
 Reference value :  2.62750e-04
 Reference value :  2.62751e-04
 Reference value :  2.62753e-04
 Reference value :  2.62754e-04
 Reference value :  2.62756e-04
 Reference value :  2.62760e-04
 Reference value :  2.62782e-04
 Reference value :  2.62957e-04
 Reference value :  2.63000e-04
 Reference value :  2.63000e-04
 Reference value :  2.63000e-04
 Reference value :  2.63000e-04
 Reference value :  2.63001e-04
 Reference value :  2.63002e-04
 Reference value :  2.63002e-04
 Reference value :  2.63003e-04
 Reference value :  2.63004e-04
 Reference value :  2.63005e-04
 Reference value :  2.63006e-04
 Reference value :  2.63008e-04
 Reference value :  2.63010e-04
 Reference value :  2.63023e-04
 Reference value :  2.63121e-04
 Reference value :  2.63250e-04
 Reference value :  2.63250e-04
 Reference value :  2.63250e-04
 Reference value :  2.63251e-04
 Reference value :  2.63251e-04
 Reference value :  2.63253e-04
 Reference value :  2.63255e-04
 Reference value :  2.63256e-04
 Reference value :  2.63262e-04
 Reference value :  2.63291e-04
 Reference value :  2.63500e-04
 Reference value :  2.63500e-04
 Reference value :  2.63500e-04
 Reference value :  2.63501e-04
 Reference value :  2.63501e-04
 Reference value :  2.63503e-04
 Reference value :  2.63504e-04
 Reference value :  2.63505e-04
 Reference value :  2.63506e-04
 Reference value :  2.63517e-04
 Reference value :  2.63522e-04
 Reference value :  2.63526e-04
 Reference value :  2.63529e-04
 Reference value :  2.63531e-04
 Reference value :  2.63536e-04
 Reference value :  2.63542e-04
 Reference value :  2.63552e-04
 Reference value :  2.63579e-04
 Reference value :  2.63660e-04
 Reference value :  2.63750e-04
 Reference value :  2.63750e-04
 Reference value :  2.63750e-04
 Reference value :  2.63751e-04
 Reference value :  2.63751e-04
 Reference value :  2.63753e-04
 Reference value :  2.63753e-04
 Reference value :  2.63755e-04
 Reference value :  2.63756e-04
 Reference value :  2.63761e-04
 Reference value :  2.63785e-04
 Reference value :  2.63971e-04
 Reference value :  2.64000e-04
 Reference value :  2.64000e-04
 Reference value :  2.64000e-04
 Reference value :  2.64001e-04
 Reference value :  2.64002e-04
 Reference value :  2.64002e-04
 Reference value :  2.64003e-04
 Reference value :  2.64006e-04
 Reference value :  2.64007e-04
 Reference value :  2.64009e-04
 Reference value :  2.64012e-04
 Reference value :  2.64014e-04
 Reference value :  2.64018e-04
 Reference value :  2.64051e-04
 Reference value :  2.64250e-04
 Reference value :  2.64250e-04
 Reference value :  2.64250e-04
 Reference value :  2.64250e-04
 Reference value :  2.64251e-04
 Reference value :  2.64251e-04
 Reference value :  2.64252e-04
 Reference value :  2.64253e-04
 Reference value :  2.64254e-04
 Reference value :  2.64256e-04
 Reference value :  2.64260e-04
 Reference value :  2.64282e-04
 Reference value :  2.64456e-04
 Reference value :  2.64500e-04
 Reference value :  2.64500e-04
 Reference value :  2.64500e-04
 Reference value :  2.64501e-04
 Reference value :  2.64502e-04
 Reference value :  2.64503e-04
 Reference value :  2.64504e-04
 Reference value :  2.64505e-04
 Reference value :  2.64506e-04
 Reference value :  2.64508e-04
 Reference value :  2.64511e-04
 Reference value :  2.64512e-04
 Reference value :  2.64514e-04
 Reference value :  2.64516e-04
 Reference value :  2.64521e-04
 Reference value :  2.64537e-04
 Reference value :  2.64604e-04
 Reference value :  2.64630e-04
 Reference value :  2.64651e-04
 Reference value :  2.64664e-04
 Reference value :  2.64683e-04
 Reference value :  2.64747e-04
 Reference value :  2.64750e-04
 Reference value :  2.64750e-04
 Reference value :  2.64751e-04
 Reference value :  2.64751e-04
 Reference value :  2.64753e-04
 Reference value :  2.64754e-04
 Reference value :  2.64755e-04
 Reference value :  2.64759e-04
 Reference value :  2.64785e-04
 Reference value :  2.65000e-04
 Reference value :  2.65000e-04
 Reference value :  2.65000e-04
 Reference value :  2.65000e-04
 Reference value :  2.65001e-04
 Reference value :  2.65002e-04
 Reference value :  2.65002e-04
 Reference value :  2.65003e-04
 Reference value :  2.65005e-04
 Reference value :  2.65006e-04
 Reference value :  2.65007e-04
 Reference value :  2.65009e-04
 Reference value :  2.65010e-04
 Reference value :  2.65022e-04
 Reference value :  2.65143e-04
 Reference value :  2.65250e-04
 Reference value :  2.65250e-04
 Reference value :  2.65251e-04
 Reference value :  2.65251e-04
 Reference value :  2.65253e-04
 Reference value :  2.65254e-04
 Reference value :  2.65256e-04
 Reference value :  2.65258e-04
 Reference value :  2.65260e-04
 Reference value :  2.65264e-04
 Reference value :  2.65275e-04
 Reference value :  2.65500e-04
 Reference value :  2.65500e-04
 Reference value :  2.65500e-04
 Reference value :  2.65500e-04
 Reference value :  2.65500e-04
 Reference value :  2.65501e-04
 Reference value :  2.65501e-04
 Reference value :  2.65502e-04
 Reference value :  2.65503e-04
 Reference value :  2.65504e-04
 Reference value :  2.65505e-04
 Reference value :  2.65507e-04
 Reference value :  2.65508e-04
 Reference value :  2.65510e-04
 Reference value :  2.65512e-04
 Reference value :  2.65514e-04
 Reference value :  2.65515e-04
 Reference value :  2.65519e-04
 Reference value :  2.65546e-04
 Reference value :  2.65570e-04
 Reference value :  2.65582e-04
 Reference value :  2.65596e-04
 Reference value :  2.65621e-04
 Reference value :  2.65681e-04
 Reference value :  2.65750e-04
 Reference value :  2.65750e-04
 Reference value :  2.65750e-04
 Reference value :  2.65751e-04
 Reference value :  2.65752e-04
 Reference value :  2.65753e-04
 Reference value :  2.65754e-04
 Reference value :  2.65755e-04
 Reference value :  2.65762e-04
 Reference value :  2.65815e-04
 Reference value :  2.66000e-04
 Reference value :  2.66000e-04
 Reference value :  2.66000e-04
 Reference value :  2.66001e-04
 Reference value :  2.66001e-04
 Reference value :  2.66002e-04
 Reference value :  2.66005e-04
 Reference value :  2.66006e-04
 Reference value :  2.66008e-04
 Reference value :  2.66010e-04
 Reference value :  2.66021e-04
 Reference value :  2.66083e-04
 Reference value :  2.66250e-04
 Reference value :  2.66250e-04
 Reference value :  2.66250e-04
 Reference value :  2.66251e-04
 Reference value :  2.66251e-04
 Reference value :  2.66253e-04
 Reference value :  2.66254e-04
 Reference value :  2.66256e-04
 Reference value :  2.66282e-04
 Reference value :  2.66500e-04
 Reference value :  2.66500e-04
 Reference value :  2.66500e-04
 Reference value :  2.66501e-04
 Reference value :  2.66502e-04
 Reference value :  2.66503e-04
 Reference value :  2.66505e-04
 Reference value :  2.66508e-04
 Reference value :  2.66511e-04
 Reference value :  2.66514e-04
 Reference value :  2.66517e-04
 Reference value :  2.66534e-04
 Reference value :  2.66552e-04
 Reference value :  2.66567e-04
 Reference value :  2.66611e-04
 Reference value :  2.66750e-04
 Reference value :  2.66750e-04
 Reference value :  2.66750e-04
 Reference value :  2.66751e-04
 Reference value :  2.66753e-04
 Reference value :  2.66754e-04
 Reference value :  2.66756e-04
 Reference value :  2.66761e-04
 Reference value :  2.66786e-04
 Reference value :  2.67000e-04
 Reference value :  2.67000e-04
 Reference value :  2.67000e-04
 Reference value :  2.67000e-04
 Reference value :  2.67001e-04
 Reference value :  2.67002e-04
 Reference value :  2.67003e-04
 Reference value :  2.67004e-04
 Reference value :  2.67006e-04
 Reference value :  2.67007e-04
 Reference value :  2.67010e-04
 Reference value :  2.67022e-04
 Reference value :  2.67250e-04
 Reference value :  2.67250e-04
 Reference value :  2.67250e-04
 Reference value :  2.67251e-04
 Reference value :  2.67251e-04
 Reference value :  2.67253e-04
 Reference value :  2.67254e-04
 Reference value :  2.67255e-04
 Reference value :  2.67257e-04
 Reference value :  2.67260e-04
 Reference value :  2.67267e-04
 Reference value :  2.67500e-04
 Reference value :  2.67500e-04
 Reference value :  2.67500e-04
 Reference value :  2.67501e-04
 Reference value :  2.67502e-04
 Reference value :  2.67503e-04
 Reference value :  2.67504e-04
 Reference value :  2.67505e-04
 Reference value :  2.67507e-04
 Reference value :  2.67508e-04
 Reference value :  2.67510e-04
 Reference value :  2.67512e-04
 Reference value :  2.67515e-04
 Reference value :  2.67518e-04
 Reference value :  2.67524e-04
 Reference value :  2.67528e-04
 Reference value :  2.67534e-04
 Reference value :  2.67546e-04
 Reference value :  2.67579e-04
 Reference value :  2.67732e-04
 Reference value :  2.67750e-04
 Reference value :  2.67750e-04
 Reference value :  2.67750e-04
 Reference value :  2.67751e-04
 Reference value :  2.67753e-04
 Reference value :  2.67754e-04
 Reference value :  2.67755e-04
 Reference value :  2.67759e-04
 Reference value :  2.67787e-04
 Reference value :  2.68000e-04
 Reference value :  2.68000e-04
 Reference value :  2.68000e-04
 Reference value :  2.68001e-04
 Reference value :  2.68001e-04
 Reference value :  2.68002e-04
 Reference value :  2.68003e-04
 Reference value :  2.68005e-04
 Reference value :  2.68006e-04
 Reference value :  2.68008e-04
 Reference value :  2.68011e-04
 Reference value :  2.68030e-04
 Reference value :  2.68250e-04
 Reference value :  2.68250e-04
 Reference value :  2.68250e-04
 Reference value :  2.68251e-04
 Reference value :  2.68252e-04
 Reference value :  2.68253e-04
 Reference value :  2.68254e-04
 Reference value :  2.68256e-04
 Reference value :  2.68260e-04
 Reference value :  2.68307e-04
 Reference value :  2.68500e-04
 Reference value :  2.68500e-04
 Reference value :  2.68500e-04
 Reference value :  2.68501e-04
 Reference value :  2.68502e-04
 Reference value :  2.68503e-04
 Reference value :  2.68504e-04
 Reference value :  2.68506e-04
 Reference value :  2.68510e-04
 Reference value :  2.68512e-04
 Reference value :  2.68514e-04
 Reference value :  2.68516e-04
 Reference value :  2.68521e-04
 Reference value :  2.68533e-04
 Reference value :  2.68540e-04
 Reference value :  2.68550e-04
 Reference value :  2.68560e-04
 Reference value :  2.68582e-04
 Reference value :  2.68603e-04
 Reference value :  2.68614e-04
 Reference value :  2.68646e-04
 Reference value :  2.68738e-04
 Reference value :  2.68750e-04
 Reference value :  2.68750e-04
 Reference value :  2.68751e-04
 Reference value :  2.68751e-04
 Reference value :  2.68753e-04
 Reference value :  2.68754e-04
 Reference value :  2.68756e-04
 Reference value :  2.68762e-04
 Reference value :  2.68787e-04
 Reference value :  2.68988e-04
 Reference value :  2.69000e-04
 Reference value :  2.69000e-04
 Reference value :  2.69000e-04
 Reference value :  2.69001e-04
 Reference value :  2.69002e-04
 Reference value :  2.69003e-04
 Reference value :  2.69005e-04
 Reference value :  2.69006e-04
 Reference value :  2.69008e-04
 Reference value :  2.69011e-04
 Reference value :  2.69046e-04
 Reference value :  2.69250e-04
 Reference value :  2.69250e-04
 Reference value :  2.69251e-04
 Reference value :  2.69251e-04
 Reference value :  2.69253e-04
 Reference value :  2.69254e-04
 Reference value :  2.69257e-04
 Reference value :  2.69264e-04
 Reference value :  2.69457e-04
 Reference value :  2.69500e-04
 Reference value :  2.69500e-04
 Reference value :  2.69501e-04
 Reference value :  2.69502e-04
 Reference value :  2.69503e-04
 Reference value :  2.69504e-04
 Reference value :  2.69506e-04
 Reference value :  2.69510e-04
 Reference value :  2.69512e-04
 Reference value :  2.69514e-04
 Reference value :  2.69517e-04
 Reference value :  2.69528e-04
 Reference value :  2.69541e-04
 Reference value :  2.69549e-04
 Reference value :  2.69567e-04
 Reference value :  2.69627e-04
 Reference value :  2.69750e-04
 Reference value :  2.69750e-04
 Reference value :  2.69751e-04
 Reference value :  2.69752e-04
 Reference value :  2.69753e-04
 Reference value :  2.69756e-04
 Reference value :  2.69772e-04
 Reference value :  2.69980e-04
 Reference value :  2.70000e-04
 Reference value :  2.70000e-04
 Reference value :  2.70000e-04
 Reference value :  2.70001e-04
 Reference value :  2.70002e-04
 Reference value :  2.70003e-04
 Reference value :  2.70005e-04
 Reference value :  2.70007e-04
 Reference value :  2.70009e-04
 Reference value :  2.70014e-04
 Reference value :  2.70022e-04
 Reference value :  2.70046e-04
 Reference value :  2.70143e-04
 Reference value :  2.70250e-04
 Reference value :  2.70250e-04
 Reference value :  2.70250e-04
 Reference value :  2.70250e-04
 Reference value :  2.70251e-04
 Reference value :  2.70252e-04
 Reference value :  2.70253e-04
 Reference value :  2.70254e-04
 Reference value :  2.70257e-04
 Reference value :  2.70282e-04
 Reference value :  2.70500e-04
 Reference value :  2.70500e-04
 Reference value :  2.70500e-04
 Reference value :  2.70501e-04
 Reference value :  2.70502e-04
 Reference value :  2.70503e-04
 Reference value :  2.70504e-04
 Reference value :  2.70505e-04
 Reference value :  2.70508e-04
 Reference value :  2.70511e-04
 Reference value :  2.70514e-04
 Reference value :  2.70516e-04
 Reference value :  2.70524e-04
 Reference value :  2.70536e-04
 Reference value :  2.70551e-04
 Reference value :  2.70570e-04
 Reference value :  2.70668e-04
 Reference value :  2.70750e-04
 Reference value :  2.70750e-04
 Reference value :  2.70750e-04
 Reference value :  2.70750e-04
 Reference value :  2.70751e-04
 Reference value :  2.70751e-04
 Reference value :  2.70752e-04
 Reference value :  2.70753e-04
 Reference value :  2.70755e-04
 Reference value :  2.70759e-04
 Reference value :  2.70786e-04
 Reference value :  2.71000e-04
 Reference value :  2.71000e-04
 Reference value :  2.71000e-04
 Reference value :  2.71000e-04
 Reference value :  2.71001e-04
 Reference value :  2.71002e-04
 Reference value :  2.71003e-04
 Reference value :  2.71005e-04
 Reference value :  2.71006e-04
 Reference value :  2.71007e-04
 Reference value :  2.71009e-04
 Reference value :  2.71011e-04
 Reference value :  2.71032e-04
 Reference value :  2.71250e-04
 Reference value :  2.71250e-04
 Reference value :  2.71250e-04
 Reference value :  2.71251e-04
 Reference value :  2.71252e-04
 Reference value :  2.71253e-04
 Reference value :  2.71254e-04
 Reference value :  2.71257e-04
 Reference value :  2.71260e-04
 Reference value :  2.71289e-04
 Reference value :  2.71500e-04
 Reference value :  2.71500e-04
 Reference value :  2.71501e-04
 Reference value :  2.71502e-04
 Reference value :  2.71503e-04
 Reference value :  2.71504e-04
 Reference value :  2.71505e-04
 Reference value :  2.71507e-04
 Reference value :  2.71511e-04
 Reference value :  2.71520e-04
 Reference value :  2.71565e-04
 Reference value :  2.71714e-04
 Reference value :  2.71750e-04
 Reference value :  2.71750e-04
 Reference value :  2.71751e-04
 Reference value :  2.71752e-04
 Reference value :  2.71755e-04
 Reference value :  2.71756e-04
 Reference value :  2.71762e-04
 Reference value :  2.71882e-04
No. of Data Rows : 39476
ngspice-44 done
