
Note: Compatibility modes selected: hs a


Circuit: ** sch_path: /home/audrey/cace/sar-adc-using-sky130-pdk/runs/run_2025-09-01_17-03-11/parameters/power/run_6/power_consumption.sch

option SCALE: Scale is set to 1e-06 for instance and model parameters
option SCALE: Scale is set to 1e-06 for instance and model parameters
option SCALE: Scale is set to 1e-06 for instance and model parameters
option SCALE: Scale is set to 1e-06 for instance and model parameters
Doing analysis at TEMP = 27.000000 and TNOM = 27.000000

Using KLU as Direct Linear Solver
 Reference value :  0.00000e+00
 Reference value :  1.00000e-12
 Reference value :  2.00000e-12
 Reference value :  4.00000e-12
 Reference value :  8.00000e-12
 Reference value :  1.60000e-11
 Reference value :  3.20000e-11
 Reference value :  6.40000e-11
 Reference value :  1.00000e-10
 Reference value :  1.00578e-10
 Reference value :  1.01733e-10
 Reference value :  1.04045e-10
 Reference value :  1.08667e-10
 Reference value :  1.17911e-10
 Reference value :  1.36401e-10
 Reference value :  1.73379e-10
 Reference value :  2.31883e-10
 Reference value :  3.15534e-10
 Reference value :  4.57617e-10
 Reference value :  7.41783e-10
 Reference value :  1.17202e-09
 Reference value :  1.65072e-09
 Reference value :  2.27520e-09
 Reference value :  3.02091e-09
 Reference value :  3.73194e-09
 Reference value :  4.62244e-09
 Reference value :  5.35105e-09
 Reference value :  6.12089e-09
 Reference value :  6.97713e-09
 Reference value :  7.77768e-09
 Reference value :  8.61993e-09
 Reference value :  9.52195e-09
 Reference value :  1.06394e-08
 Reference value :  1.18223e-08
 Reference value :  1.31112e-08
 Reference value :  1.43384e-08
 Reference value :  1.57862e-08
 Reference value :  1.71702e-08
 Reference value :  1.90693e-08
 Reference value :  2.04812e-08
 Reference value :  2.18311e-08
 Reference value :  2.32417e-08
 Reference value :  2.50036e-08
 Reference value :  2.68721e-08
 Reference value :  2.98303e-08
 Reference value :  3.25711e-08
 Reference value :  3.56444e-08
 Reference value :  3.85549e-08
 Reference value :  4.06001e-08
 Reference value :  4.26081e-08
 Reference value :  4.39939e-08
 Reference value :  4.52473e-08
 Reference value :  4.70791e-08
 Reference value :  4.88591e-08
 Reference value :  5.17199e-08
 Reference value :  5.47873e-08
 Reference value :  5.87201e-08
 Reference value :  6.28519e-08
 Reference value :  7.11154e-08
 Reference value :  8.46920e-08
 Reference value :  1.05133e-07
 Reference value :  1.27142e-07
 Reference value :  1.58261e-07
 Reference value :  1.98531e-07
 Reference value :  2.50100e-07
 Reference value :  2.50110e-07
 Reference value :  2.50130e-07
 Reference value :  2.50170e-07
 Reference value :  2.50200e-07
 Reference value :  2.50201e-07
 Reference value :  2.50202e-07
 Reference value :  2.50204e-07
 Reference value :  2.50208e-07
 Reference value :  2.50216e-07
 Reference value :  2.50232e-07
 Reference value :  2.50265e-07
 Reference value :  2.50331e-07
 Reference value :  2.50413e-07
 Reference value :  2.50576e-07
 Reference value :  2.50756e-07
 Reference value :  2.51099e-07
 Reference value :  2.51497e-07
 Reference value :  2.52186e-07
 Reference value :  2.52821e-07
 Reference value :  2.53569e-07
 Reference value :  2.54552e-07
 Reference value :  2.55542e-07
 Reference value :  2.56566e-07
 Reference value :  2.57736e-07
 Reference value :  2.58848e-07
 Reference value :  2.60117e-07
 Reference value :  2.61381e-07
 Reference value :  2.63093e-07
 Reference value :  2.65815e-07
 Reference value :  2.69941e-07
 Reference value :  2.77655e-07
 Reference value :  2.90039e-07
 Reference value :  3.11992e-07
 Reference value :  3.50470e-07
 Reference value :  4.16259e-07
 Reference value :  5.00000e-07
 Reference value :  5.00010e-07
 Reference value :  5.00030e-07
 Reference value :  5.00070e-07
 Reference value :  5.00100e-07
 Reference value :  5.00101e-07
 Reference value :  5.00102e-07
 Reference value :  5.00104e-07
 Reference value :  5.00108e-07
 Reference value :  5.00116e-07
 Reference value :  5.00133e-07
 Reference value :  5.00166e-07
 Reference value :  5.00232e-07
 Reference value :  5.00364e-07
 Reference value :  5.00562e-07
 Reference value :  5.00958e-07
 Reference value :  5.01468e-07
 Reference value :  5.02004e-07
 Reference value :  5.02765e-07
 Reference value :  5.03571e-07
 Reference value :  5.04319e-07
 Reference value :  5.05131e-07
 Reference value :  5.06130e-07
 Reference value :  5.07181e-07
 Reference value :  5.08420e-07
 Reference value :  5.09733e-07
 Reference value :  5.11727e-07
 Reference value :  5.13533e-07
 Reference value :  5.15579e-07
 Reference value :  5.17538e-07
 Reference value :  5.19737e-07
 Reference value :  5.24135e-07
 Reference value :  5.27149e-07
 Reference value :  5.30652e-07
 Reference value :  5.34482e-07
 Reference value :  5.38541e-07
 Reference value :  5.44799e-07
 Reference value :  5.50744e-07
 Reference value :  5.60442e-07
 Reference value :  5.74388e-07
 Reference value :  6.02280e-07
 Reference value :  6.48296e-07
 Reference value :  7.30901e-07
 Reference value :  7.50100e-07
 Reference value :  7.50110e-07
 Reference value :  7.50130e-07
 Reference value :  7.50170e-07
 Reference value :  7.50200e-07
 Reference value :  7.50201e-07
 Reference value :  7.50202e-07
 Reference value :  7.50204e-07
 Reference value :  7.50208e-07
 Reference value :  7.50216e-07
 Reference value :  7.50233e-07
 Reference value :  7.50266e-07
 Reference value :  7.50333e-07
 Reference value :  7.50467e-07
 Reference value :  7.50644e-07
 Reference value :  7.50914e-07
 Reference value :  7.51453e-07
 Reference value :  7.52099e-07
 Reference value :  7.52800e-07
 Reference value :  7.53529e-07
 Reference value :  7.54426e-07
 Reference value :  7.55524e-07
 Reference value :  7.56676e-07
 Reference value :  7.57702e-07
 Reference value :  7.58796e-07
 Reference value :  7.59792e-07
 Reference value :  7.60841e-07
 Reference value :  7.62255e-07
 Reference value :  7.63761e-07
 Reference value :  7.66773e-07
 Reference value :  7.71839e-07
 Reference value :  7.79702e-07
 Reference value :  7.94913e-07
 Reference value :  8.19228e-07
 Reference value :  8.63135e-07
 Reference value :  9.41105e-07
 Reference value :  1.00000e-06
 Reference value :  1.00001e-06
 Reference value :  1.00003e-06
 Reference value :  1.00007e-06
 Reference value :  1.00010e-06
 Reference value :  1.00010e-06
 Reference value :  1.00010e-06
 Reference value :  1.00010e-06
 Reference value :  1.00011e-06
 Reference value :  1.00012e-06
 Reference value :  1.00013e-06
 Reference value :  1.00017e-06
 Reference value :  1.00023e-06
 Reference value :  1.00036e-06
 Reference value :  1.00056e-06
 Reference value :  1.00096e-06
 Reference value :  1.00147e-06
 Reference value :  1.00201e-06
 Reference value :  1.00276e-06
 Reference value :  1.00346e-06
 Reference value :  1.00420e-06
 Reference value :  1.00499e-06
 Reference value :  1.00587e-06
 Reference value :  1.00691e-06
 Reference value :  1.00774e-06
 Reference value :  1.00867e-06
 Reference value :  1.00966e-06
 Reference value :  1.01084e-06
 Reference value :  1.01249e-06
 Reference value :  1.01493e-06
 Reference value :  1.01837e-06
 Reference value :  1.02257e-06
 Reference value :  1.02578e-06
 Reference value :  1.02864e-06
 Reference value :  1.03083e-06
 Reference value :  1.03288e-06
 Reference value :  1.03523e-06
 Reference value :  1.03751e-06
 Reference value :  1.04006e-06
 Reference value :  1.04369e-06
 Reference value :  1.04816e-06
 Reference value :  1.05475e-06
 Reference value :  1.06450e-06
 Reference value :  1.07910e-06
 Reference value :  1.10224e-06
 Reference value :  1.13721e-06
 Reference value :  1.17621e-06
 Reference value :  1.21639e-06
 Reference value :  1.23451e-06
 Reference value :  1.25010e-06
 Reference value :  1.25011e-06
 Reference value :  1.25013e-06
 Reference value :  1.25017e-06
 Reference value :  1.25020e-06
 Reference value :  1.25020e-06
 Reference value :  1.25020e-06
 Reference value :  1.25020e-06
 Reference value :  1.25021e-06
 Reference value :  1.25022e-06
 Reference value :  1.25023e-06
 Reference value :  1.25027e-06
 Reference value :  1.25033e-06
 Reference value :  1.25047e-06
 Reference value :  1.25064e-06
 Reference value :  1.25091e-06
 Reference value :  1.25145e-06
 Reference value :  1.25210e-06
 Reference value :  1.25288e-06
 Reference value :  1.25358e-06
 Reference value :  1.25455e-06
 Reference value :  1.25561e-06
 Reference value :  1.25650e-06
 Reference value :  1.25756e-06
 Reference value :  1.25869e-06
 Reference value :  1.25984e-06
 Reference value :  1.26129e-06
 Reference value :  1.26393e-06
 Reference value :  1.26731e-06
 Reference value :  1.27247e-06
 Reference value :  1.28281e-06
 Reference value :  1.29903e-06
 Reference value :  1.33147e-06
 Reference value :  1.39635e-06
 Reference value :  1.50000e-06
 Reference value :  1.50001e-06
 Reference value :  1.50003e-06
 Reference value :  1.50007e-06
 Reference value :  1.50010e-06
 Reference value :  1.50010e-06
 Reference value :  1.50010e-06
 Reference value :  1.50010e-06
 Reference value :  1.50011e-06
 Reference value :  1.50012e-06
 Reference value :  1.50013e-06
 Reference value :  1.50017e-06
 Reference value :  1.50023e-06
 Reference value :  1.50036e-06
 Reference value :  1.50056e-06
 Reference value :  1.50095e-06
 Reference value :  1.50146e-06
 Reference value :  1.50200e-06
 Reference value :  1.50275e-06
 Reference value :  1.50344e-06
 Reference value :  1.50417e-06
 Reference value :  1.50501e-06
 Reference value :  1.50593e-06
 Reference value :  1.50702e-06
 Reference value :  1.50802e-06
 Reference value :  1.50959e-06
 Reference value :  1.51123e-06
 Reference value :  1.51320e-06
 Reference value :  1.51481e-06
 Reference value :  1.51652e-06
 Reference value :  1.51884e-06
 Reference value :  1.52121e-06
 Reference value :  1.52516e-06
 Reference value :  1.53040e-06
 Reference value :  1.53851e-06
 Reference value :  1.55148e-06
 Reference value :  1.57420e-06
 Reference value :  1.61701e-06
 Reference value :  1.69222e-06
 Reference value :  1.75010e-06
 Reference value :  1.75011e-06
 Reference value :  1.75013e-06
 Reference value :  1.75017e-06
 Reference value :  1.75020e-06
 Reference value :  1.75020e-06
 Reference value :  1.75020e-06
 Reference value :  1.75020e-06
 Reference value :  1.75021e-06
 Reference value :  1.75022e-06
 Reference value :  1.75023e-06
 Reference value :  1.75027e-06
 Reference value :  1.75033e-06
 Reference value :  1.75047e-06
 Reference value :  1.75064e-06
 Reference value :  1.75091e-06
 Reference value :  1.75145e-06
 Reference value :  1.75210e-06
 Reference value :  1.75288e-06
 Reference value :  1.75358e-06
 Reference value :  1.75454e-06
 Reference value :  1.75561e-06
 Reference value :  1.75653e-06
 Reference value :  1.75762e-06
 Reference value :  1.75853e-06
 Reference value :  1.75951e-06
 Reference value :  1.76064e-06
 Reference value :  1.76189e-06
 Reference value :  1.76338e-06
 Reference value :  1.76497e-06
 Reference value :  1.76741e-06
 Reference value :  1.77003e-06
 Reference value :  1.77439e-06
 Reference value :  1.78310e-06
 Reference value :  1.79621e-06
 Reference value :  1.82184e-06
 Reference value :  1.86515e-06
 Reference value :  1.94189e-06
 Reference value :  2.00000e-06
 Reference value :  2.00001e-06
 Reference value :  2.00003e-06
 Reference value :  2.00007e-06
 Reference value :  2.00010e-06
 Reference value :  2.00010e-06
 Reference value :  2.00010e-06
 Reference value :  2.00010e-06
 Reference value :  2.00011e-06
 Reference value :  2.00012e-06
 Reference value :  2.00013e-06
 Reference value :  2.00017e-06
 Reference value :  2.00023e-06
 Reference value :  2.00036e-06
 Reference value :  2.00056e-06
 Reference value :  2.00095e-06
 Reference value :  2.00146e-06
 Reference value :  2.00200e-06
 Reference value :  2.00275e-06
 Reference value :  2.00345e-06
 Reference value :  2.00418e-06
 Reference value :  2.00498e-06
 Reference value :  2.00586e-06
 Reference value :  2.00661e-06
 Reference value :  2.00746e-06
 Reference value :  2.00819e-06
 Reference value :  2.00904e-06
 Reference value :  2.01011e-06
 Reference value :  2.01122e-06
 Reference value :  2.01324e-06
 Reference value :  2.01537e-06
 Reference value :  2.01761e-06
 Reference value :  2.01983e-06
 Reference value :  2.02193e-06
 Reference value :  2.02420e-06
 Reference value :  2.02601e-06
 Reference value :  2.02745e-06
 Reference value :  2.02899e-06
 Reference value :  2.03072e-06
 Reference value :  2.03260e-06
 Reference value :  2.03464e-06
 Reference value :  2.03764e-06
 Reference value :  2.04130e-06
 Reference value :  2.04860e-06
 Reference value :  2.05921e-06
 Reference value :  2.07771e-06
 Reference value :  2.09959e-06
 Reference value :  2.12038e-06
 Reference value :  2.14114e-06
 Reference value :  2.15497e-06
 Reference value :  2.16787e-06
 Reference value :  2.18372e-06
 Reference value :  2.19921e-06
 Reference value :  2.22546e-06
 Reference value :  2.25010e-06
 Reference value :  2.25011e-06
 Reference value :  2.25013e-06
 Reference value :  2.25017e-06
 Reference value :  2.25020e-06
 Reference value :  2.25020e-06
 Reference value :  2.25020e-06
 Reference value :  2.25020e-06
 Reference value :  2.25021e-06
 Reference value :  2.25022e-06
 Reference value :  2.25023e-06
 Reference value :  2.25027e-06
 Reference value :  2.25033e-06
 Reference value :  2.25047e-06
 Reference value :  2.25064e-06
 Reference value :  2.25091e-06
 Reference value :  2.25145e-06
 Reference value :  2.25210e-06
 Reference value :  2.25288e-06
 Reference value :  2.25358e-06
 Reference value :  2.25454e-06
 Reference value :  2.25561e-06
 Reference value :  2.25661e-06
 Reference value :  2.25770e-06
 Reference value :  2.25881e-06
 Reference value :  2.26038e-06
 Reference value :  2.26246e-06
 Reference value :  2.26502e-06
 Reference value :  2.26891e-06
 Reference value :  2.27555e-06
 Reference value :  2.28652e-06
 Reference value :  2.30477e-06
 Reference value :  2.34126e-06
 Reference value :  2.40128e-06
 Reference value :  2.46671e-06
 Reference value :  2.50000e-06
 Reference value :  2.50001e-06
 Reference value :  2.50003e-06
 Reference value :  2.50007e-06
 Reference value :  2.50010e-06
 Reference value :  2.50010e-06
 Reference value :  2.50010e-06
 Reference value :  2.50010e-06
 Reference value :  2.50011e-06
 Reference value :  2.50012e-06
 Reference value :  2.50013e-06
 Reference value :  2.50017e-06
 Reference value :  2.50023e-06
 Reference value :  2.50036e-06
 Reference value :  2.50055e-06
 Reference value :  2.50091e-06
 Reference value :  2.50141e-06
 Reference value :  2.50194e-06
 Reference value :  2.50269e-06
 Reference value :  2.50338e-06
 Reference value :  2.50409e-06
 Reference value :  2.50487e-06
 Reference value :  2.50575e-06
 Reference value :  2.50669e-06
 Reference value :  2.50793e-06
 Reference value :  2.50945e-06
 Reference value :  2.51166e-06
 Reference value :  2.51317e-06
 Reference value :  2.51482e-06
 Reference value :  2.51648e-06
 Reference value :  2.51877e-06
 Reference value :  2.52127e-06
 Reference value :  2.52549e-06
 Reference value :  2.53148e-06
 Reference value :  2.54112e-06
 Reference value :  2.55987e-06
 Reference value :  2.58942e-06
 Reference value :  2.64387e-06
 Reference value :  2.73734e-06
 Reference value :  2.75010e-06
 Reference value :  2.75011e-06
 Reference value :  2.75013e-06
 Reference value :  2.75017e-06
 Reference value :  2.75020e-06
 Reference value :  2.75020e-06
 Reference value :  2.75020e-06
 Reference value :  2.75020e-06
 Reference value :  2.75021e-06
 Reference value :  2.75022e-06
 Reference value :  2.75023e-06
 Reference value :  2.75027e-06
 Reference value :  2.75033e-06
 Reference value :  2.75047e-06
 Reference value :  2.75064e-06
 Reference value :  2.75091e-06
 Reference value :  2.75145e-06
 Reference value :  2.75210e-06
 Reference value :  2.75287e-06
 Reference value :  2.75358e-06
 Reference value :  2.75455e-06
 Reference value :  2.75561e-06
 Reference value :  2.75658e-06
 Reference value :  2.75748e-06
 Reference value :  2.75844e-06
 Reference value :  2.75955e-06
 Reference value :  2.76080e-06
 Reference value :  2.76330e-06
 Reference value :  2.76642e-06
 Reference value :  2.77101e-06
 Reference value :  2.77932e-06
 Reference value :  2.79443e-06
 Reference value :  2.81967e-06
 Reference value :  2.87015e-06
 Reference value :  2.97111e-06
 Reference value :  3.00000e-06
 Reference value :  3.00001e-06
 Reference value :  3.00003e-06
 Reference value :  3.00007e-06
 Reference value :  3.00010e-06
 Reference value :  3.00010e-06
 Reference value :  3.00010e-06
 Reference value :  3.00010e-06
 Reference value :  3.00011e-06
 Reference value :  3.00012e-06
 Reference value :  3.00013e-06
 Reference value :  3.00017e-06
 Reference value :  3.00023e-06
 Reference value :  3.00036e-06
 Reference value :  3.00055e-06
 Reference value :  3.00091e-06
 Reference value :  3.00141e-06
 Reference value :  3.00194e-06
 Reference value :  3.00269e-06
 Reference value :  3.00338e-06
 Reference value :  3.00409e-06
 Reference value :  3.00487e-06
 Reference value :  3.00574e-06
 Reference value :  3.00666e-06
 Reference value :  3.00762e-06
 Reference value :  3.00843e-06
 Reference value :  3.00934e-06
 Reference value :  3.01049e-06
 Reference value :  3.01172e-06
 Reference value :  3.01403e-06
 Reference value :  3.01619e-06
 Reference value :  3.01901e-06
 Reference value :  3.02130e-06
 Reference value :  3.02337e-06
 Reference value :  3.02483e-06
 Reference value :  3.02637e-06
 Reference value :  3.02794e-06
 Reference value :  3.02955e-06
 Reference value :  3.03137e-06
 Reference value :  3.03423e-06
 Reference value :  3.03719e-06
 Reference value :  3.04310e-06
 Reference value :  3.05152e-06
 Reference value :  3.06062e-06
 Reference value :  3.06908e-06
 Reference value :  3.07767e-06
 Reference value :  3.08420e-06
 Reference value :  3.09122e-06
 Reference value :  3.09622e-06
 Reference value :  3.10251e-06
 Reference value :  3.10980e-06
 Reference value :  3.11622e-06
 Reference value :  3.12390e-06
 Reference value :  3.13763e-06
 Reference value :  3.15904e-06
 Reference value :  3.19275e-06
 Reference value :  3.25010e-06
 Reference value :  3.25011e-06
 Reference value :  3.25013e-06
 Reference value :  3.25017e-06
 Reference value :  3.25020e-06
 Reference value :  3.25020e-06
 Reference value :  3.25020e-06
 Reference value :  3.25020e-06
 Reference value :  3.25021e-06
 Reference value :  3.25022e-06
 Reference value :  3.25023e-06
 Reference value :  3.25027e-06
 Reference value :  3.25033e-06
 Reference value :  3.25047e-06
 Reference value :  3.25064e-06
 Reference value :  3.25091e-06
 Reference value :  3.25145e-06
 Reference value :  3.25210e-06
 Reference value :  3.25287e-06
 Reference value :  3.25358e-06
 Reference value :  3.25455e-06
 Reference value :  3.25561e-06
 Reference value :  3.25658e-06
 Reference value :  3.25758e-06
 Reference value :  3.25864e-06
 Reference value :  3.26037e-06
 Reference value :  3.26199e-06
 Reference value :  3.26480e-06
 Reference value :  3.26828e-06
 Reference value :  3.27518e-06
 Reference value :  3.28625e-06
 Reference value :  3.30466e-06
 Reference value :  3.34148e-06
 Reference value :  3.41422e-06
 Reference value :  3.50000e-06
 Reference value :  3.50001e-06
 Reference value :  3.50003e-06
 Reference value :  3.50007e-06
 Reference value :  3.50010e-06
 Reference value :  3.50010e-06
 Reference value :  3.50010e-06
 Reference value :  3.50010e-06
 Reference value :  3.50011e-06
 Reference value :  3.50012e-06
 Reference value :  3.50013e-06
 Reference value :  3.50017e-06
 Reference value :  3.50023e-06
 Reference value :  3.50036e-06
 Reference value :  3.50055e-06
 Reference value :  3.50091e-06
 Reference value :  3.50141e-06
 Reference value :  3.50194e-06
 Reference value :  3.50269e-06
 Reference value :  3.50338e-06
 Reference value :  3.50410e-06
 Reference value :  3.50490e-06
 Reference value :  3.50579e-06
 Reference value :  3.50677e-06
 Reference value :  3.50802e-06
 Reference value :  3.50960e-06
 Reference value :  3.51111e-06
 Reference value :  3.51269e-06
 Reference value :  3.51430e-06
 Reference value :  3.51594e-06
 Reference value :  3.51763e-06
 Reference value :  3.51992e-06
 Reference value :  3.52230e-06
 Reference value :  3.52665e-06
 Reference value :  3.53290e-06
 Reference value :  3.54372e-06
 Reference value :  3.56328e-06
 Reference value :  3.59668e-06
 Reference value :  3.65924e-06
 Reference value :  3.75010e-06
 Reference value :  3.75011e-06
 Reference value :  3.75013e-06
 Reference value :  3.75017e-06
 Reference value :  3.75020e-06
 Reference value :  3.75020e-06
 Reference value :  3.75020e-06
 Reference value :  3.75020e-06
 Reference value :  3.75021e-06
 Reference value :  3.75022e-06
 Reference value :  3.75023e-06
 Reference value :  3.75027e-06
 Reference value :  3.75033e-06
 Reference value :  3.75047e-06
 Reference value :  3.75064e-06
 Reference value :  3.75091e-06
 Reference value :  3.75145e-06
 Reference value :  3.75210e-06
 Reference value :  3.75288e-06
 Reference value :  3.75358e-06
 Reference value :  3.75455e-06
 Reference value :  3.75561e-06
 Reference value :  3.75651e-06
 Reference value :  3.75749e-06
 Reference value :  3.75843e-06
 Reference value :  3.75946e-06
 Reference value :  3.76064e-06
 Reference value :  3.76202e-06
 Reference value :  3.76348e-06
 Reference value :  3.76599e-06
 Reference value :  3.76855e-06
 Reference value :  3.77220e-06
 Reference value :  3.77740e-06
 Reference value :  3.78779e-06
 Reference value :  3.80857e-06
 Reference value :  3.85014e-06
 Reference value :  3.93328e-06
 Reference value :  4.00000e-06
 Reference value :  4.00001e-06
 Reference value :  4.00003e-06
 Reference value :  4.00007e-06
 Reference value :  4.00010e-06
 Reference value :  4.00010e-06
 Reference value :  4.00010e-06
 Reference value :  4.00010e-06
 Reference value :  4.00011e-06
 Reference value :  4.00012e-06
 Reference value :  4.00013e-06
 Reference value :  4.00017e-06
 Reference value :  4.00023e-06
 Reference value :  4.00036e-06
 Reference value :  4.00055e-06
 Reference value :  4.00091e-06
 Reference value :  4.00141e-06
 Reference value :  4.00194e-06
 Reference value :  4.00269e-06
 Reference value :  4.00337e-06
 Reference value :  4.00409e-06
 Reference value :  4.00487e-06
 Reference value :  4.00575e-06
 Reference value :  4.00648e-06
 Reference value :  4.00727e-06
 Reference value :  4.00802e-06
 Reference value :  4.00888e-06
 Reference value :  4.00970e-06
 Reference value :  4.01095e-06
 Reference value :  4.01209e-06
 Reference value :  4.01418e-06
 Reference value :  4.01638e-06
 Reference value :  4.01810e-06
 Reference value :  4.01998e-06
 Reference value :  4.02247e-06
 Reference value :  4.02454e-06
 Reference value :  4.02611e-06
 Reference value :  4.02758e-06
 Reference value :  4.02917e-06
 Reference value :  4.03079e-06
 Reference value :  4.03262e-06
 Reference value :  4.03580e-06
 Reference value :  4.03876e-06
 Reference value :  4.04229e-06
 Reference value :  4.04657e-06
 Reference value :  4.04988e-06
 Reference value :  4.05264e-06
 Reference value :  4.05564e-06
 Reference value :  4.06037e-06
 Reference value :  4.06652e-06
 Reference value :  4.07708e-06
 Reference value :  4.08711e-06
 Reference value :  4.10716e-06
 Reference value :  4.13144e-06
 Reference value :  4.15851e-06
 Reference value :  4.19144e-06
 Reference value :  4.24800e-06
 Reference value :  4.25010e-06
 Reference value :  4.25011e-06
 Reference value :  4.25013e-06
 Reference value :  4.25017e-06
 Reference value :  4.25020e-06
 Reference value :  4.25020e-06
 Reference value :  4.25020e-06
 Reference value :  4.25020e-06
 Reference value :  4.25021e-06
 Reference value :  4.25022e-06
 Reference value :  4.25023e-06
 Reference value :  4.25027e-06
 Reference value :  4.25033e-06
 Reference value :  4.25042e-06
 Reference value :  4.25058e-06
 Reference value :  4.25077e-06
 Reference value :  4.25109e-06
 Reference value :  4.25172e-06
 Reference value :  4.25234e-06
 Reference value :  4.25304e-06
 Reference value :  4.25378e-06
 Reference value :  4.25472e-06
 Reference value :  4.25556e-06
 Reference value :  4.25650e-06
 Reference value :  4.25744e-06
 Reference value :  4.25841e-06
 Reference value :  4.25998e-06
 Reference value :  4.26158e-06
 Reference value :  4.26422e-06
 Reference value :  4.26766e-06
 Reference value :  4.27321e-06
 Reference value :  4.28430e-06
 Reference value :  4.30649e-06
 Reference value :  4.35087e-06
 Reference value :  4.43962e-06
 Reference value :  4.50000e-06
 Reference value :  4.50001e-06
 Reference value :  4.50003e-06
 Reference value :  4.50007e-06
 Reference value :  4.50010e-06
 Reference value :  4.50010e-06
 Reference value :  4.50010e-06
 Reference value :  4.50010e-06
 Reference value :  4.50011e-06
 Reference value :  4.50012e-06
 Reference value :  4.50013e-06
 Reference value :  4.50017e-06
 Reference value :  4.50023e-06
 Reference value :  4.50036e-06
 Reference value :  4.50063e-06
 Reference value :  4.50110e-06
 Reference value :  4.50176e-06
 Reference value :  4.50247e-06
 Reference value :  4.50308e-06
 Reference value :  4.50385e-06
 Reference value :  4.50469e-06
 Reference value :  4.50557e-06
 Reference value :  4.50645e-06
 Reference value :  4.50745e-06
 Reference value :  4.50876e-06
 Reference value :  4.51036e-06
 Reference value :  4.51157e-06
 Reference value :  4.51296e-06
 Reference value :  4.51454e-06
 Reference value :  4.51623e-06
 Reference value :  4.51796e-06
 Reference value :  4.52141e-06
 Reference value :  4.52832e-06
 Reference value :  4.54212e-06
 Reference value :  4.56974e-06
 Reference value :  4.62497e-06
 Reference value :  4.73543e-06
 Reference value :  4.75010e-06
 Reference value :  4.75011e-06
 Reference value :  4.75013e-06
 Reference value :  4.75017e-06
 Reference value :  4.75020e-06
 Reference value :  4.75020e-06
 Reference value :  4.75020e-06
 Reference value :  4.75020e-06
 Reference value :  4.75021e-06
 Reference value :  4.75022e-06
 Reference value :  4.75023e-06
 Reference value :  4.75027e-06
 Reference value :  4.75033e-06
 Reference value :  4.75042e-06
 Reference value :  4.75058e-06
 Reference value :  4.75077e-06
 Reference value :  4.75108e-06
 Reference value :  4.75171e-06
 Reference value :  4.75233e-06
 Reference value :  4.75303e-06
 Reference value :  4.75377e-06
 Reference value :  4.75471e-06
 Reference value :  4.75554e-06
 Reference value :  4.75647e-06
 Reference value :  4.75729e-06
 Reference value :  4.75818e-06
 Reference value :  4.75919e-06
 Reference value :  4.76035e-06
 Reference value :  4.76267e-06
 Reference value :  4.76561e-06
 Reference value :  4.76985e-06
 Reference value :  4.77700e-06
 Reference value :  4.79128e-06
 Reference value :  4.81986e-06
 Reference value :  4.87700e-06
 Reference value :  4.99130e-06
 Reference value :  5.00000e-06
 Reference value :  5.00001e-06
 Reference value :  5.00003e-06
 Reference value :  5.00007e-06
 Reference value :  5.00010e-06
 Reference value :  5.00010e-06
 Reference value :  5.00010e-06
 Reference value :  5.00010e-06
 Reference value :  5.00011e-06
 Reference value :  5.00012e-06
 Reference value :  5.00013e-06
 Reference value :  5.00017e-06
 Reference value :  5.00023e-06
 Reference value :  5.00036e-06
 Reference value :  5.00063e-06
 Reference value :  5.00109e-06
 Reference value :  5.00175e-06
 Reference value :  5.00247e-06
 Reference value :  5.00309e-06
 Reference value :  5.00385e-06
 Reference value :  5.00472e-06
 Reference value :  5.00561e-06
 Reference value :  5.00649e-06
 Reference value :  5.00729e-06
 Reference value :  5.00805e-06
 Reference value :  5.00889e-06
 Reference value :  5.01000e-06
 Reference value :  5.01117e-06
 Reference value :  5.01352e-06
 Reference value :  5.01591e-06
 Reference value :  5.01931e-06
 Reference value :  5.02283e-06
 Reference value :  5.02596e-06
 Reference value :  5.02838e-06
 Reference value :  5.03065e-06
 Reference value :  5.03316e-06
 Reference value :  5.03560e-06
 Reference value :  5.03849e-06
 Reference value :  5.04179e-06
 Reference value :  5.04719e-06
 Reference value :  5.05428e-06
 Reference value :  5.06089e-06
 Reference value :  5.06860e-06
 Reference value :  5.07704e-06
 Reference value :  5.08291e-06
 Reference value :  5.08874e-06
 Reference value :  5.09589e-06
 Reference value :  5.10267e-06
 Reference value :  5.10916e-06
 Reference value :  5.11726e-06
 Reference value :  5.12835e-06
 Reference value :  5.14354e-06
 Reference value :  5.16445e-06
 Reference value :  5.18981e-06
 Reference value :  5.21416e-06
 Reference value :  5.23855e-06
 Reference value :  5.25010e-06
 Reference value :  5.25011e-06
 Reference value :  5.25013e-06
 Reference value :  5.25017e-06
 Reference value :  5.25020e-06
 Reference value :  5.25020e-06
 Reference value :  5.25020e-06
 Reference value :  5.25020e-06
 Reference value :  5.25021e-06
 Reference value :  5.25022e-06
 Reference value :  5.25023e-06
 Reference value :  5.25027e-06
 Reference value :  5.25033e-06
 Reference value :  5.25042e-06
 Reference value :  5.25058e-06
 Reference value :  5.25076e-06
 Reference value :  5.25108e-06
 Reference value :  5.25172e-06
 Reference value :  5.25234e-06
 Reference value :  5.25305e-06
 Reference value :  5.25378e-06
 Reference value :  5.25473e-06
 Reference value :  5.25576e-06
 Reference value :  5.25651e-06
 Reference value :  5.25740e-06
 Reference value :  5.25835e-06
 Reference value :  5.25947e-06
 Reference value :  5.26067e-06
 Reference value :  5.26307e-06
 Reference value :  5.26617e-06
 Reference value :  5.27064e-06
 Reference value :  5.27787e-06
 Reference value :  5.28717e-06
 Reference value :  5.29749e-06
 Reference value :  5.30944e-06
 Reference value :  5.32344e-06
 Reference value :  5.35145e-06
 Reference value :  5.40746e-06
 Reference value :  5.50000e-06
 Reference value :  5.50001e-06
 Reference value :  5.50003e-06
 Reference value :  5.50007e-06
 Reference value :  5.50010e-06
 Reference value :  5.50010e-06
 Reference value :  5.50010e-06
 Reference value :  5.50010e-06
 Reference value :  5.50011e-06
 Reference value :  5.50012e-06
 Reference value :  5.50013e-06
 Reference value :  5.50017e-06
 Reference value :  5.50023e-06
 Reference value :  5.50036e-06
 Reference value :  5.50063e-06
 Reference value :  5.50110e-06
 Reference value :  5.50176e-06
 Reference value :  5.50247e-06
 Reference value :  5.50308e-06
 Reference value :  5.50385e-06
 Reference value :  5.50481e-06
 Reference value :  5.50576e-06
 Reference value :  5.50670e-06
 Reference value :  5.50783e-06
 Reference value :  5.50918e-06
 Reference value :  5.51079e-06
 Reference value :  5.51225e-06
 Reference value :  5.51359e-06
 Reference value :  5.51507e-06
 Reference value :  5.51672e-06
 Reference value :  5.51843e-06
 Reference value :  5.52185e-06
 Reference value :  5.52674e-06
 Reference value :  5.53648e-06
 Reference value :  5.55466e-06
 Reference value :  5.58763e-06
 Reference value :  5.65349e-06
 Reference value :  5.75010e-06
 Reference value :  5.75011e-06
 Reference value :  5.75013e-06
 Reference value :  5.75017e-06
 Reference value :  5.75020e-06
 Reference value :  5.75020e-06
 Reference value :  5.75020e-06
 Reference value :  5.75020e-06
 Reference value :  5.75021e-06
 Reference value :  5.75022e-06
 Reference value :  5.75023e-06
 Reference value :  5.75027e-06
 Reference value :  5.75033e-06
 Reference value :  5.75041e-06
 Reference value :  5.75058e-06
 Reference value :  5.75077e-06
 Reference value :  5.75108e-06
 Reference value :  5.75170e-06
 Reference value :  5.75233e-06
 Reference value :  5.75303e-06
 Reference value :  5.75376e-06
 Reference value :  5.75470e-06
 Reference value :  5.75573e-06
 Reference value :  5.75648e-06
 Reference value :  5.75737e-06
 Reference value :  5.75836e-06
 Reference value :  5.75929e-06
 Reference value :  5.76068e-06
 Reference value :  5.76212e-06
 Reference value :  5.76499e-06
 Reference value :  5.76877e-06
 Reference value :  5.77633e-06
 Reference value :  5.79145e-06
 Reference value :  5.81854e-06
 Reference value :  5.87272e-06
 Reference value :  5.98108e-06
 Reference value :  6.00000e-06
 Reference value :  6.00001e-06
 Reference value :  6.00003e-06
 Reference value :  6.00007e-06
 Reference value :  6.00010e-06
 Reference value :  6.00010e-06
 Reference value :  6.00010e-06
 Reference value :  6.00010e-06
 Reference value :  6.00011e-06
 Reference value :  6.00012e-06
 Reference value :  6.00013e-06
 Reference value :  6.00017e-06
 Reference value :  6.00023e-06
 Reference value :  6.00036e-06
 Reference value :  6.00063e-06
 Reference value :  6.00109e-06
 Reference value :  6.00175e-06
 Reference value :  6.00247e-06
 Reference value :  6.00309e-06
 Reference value :  6.00385e-06
 Reference value :  6.00482e-06
 Reference value :  6.00571e-06
 Reference value :  6.00666e-06
 Reference value :  6.00758e-06
 Reference value :  6.00856e-06
 Reference value :  6.00957e-06
 Reference value :  6.01080e-06
 Reference value :  6.01257e-06
 Reference value :  6.01488e-06
 Reference value :  6.01891e-06
 Reference value :  6.02380e-06
 Reference value :  6.02718e-06
 Reference value :  6.03006e-06
 Reference value :  6.03277e-06
 Reference value :  6.03554e-06
 Reference value :  6.03841e-06
 Reference value :  6.04161e-06
 Reference value :  6.04504e-06
 Reference value :  6.05065e-06
 Reference value :  6.05693e-06
 Reference value :  6.06462e-06
 Reference value :  6.07213e-06
 Reference value :  6.07883e-06
 Reference value :  6.08572e-06
 Reference value :  6.09356e-06
 Reference value :  6.10096e-06
 Reference value :  6.10863e-06
 Reference value :  6.11666e-06
 Reference value :  6.13273e-06
 Reference value :  6.15603e-06
 Reference value :  6.19612e-06
 Reference value :  6.25010e-06
 Reference value :  6.25011e-06
 Reference value :  6.25013e-06
 Reference value :  6.25017e-06
 Reference value :  6.25020e-06
 Reference value :  6.25020e-06
 Reference value :  6.25020e-06
 Reference value :  6.25020e-06
 Reference value :  6.25021e-06
 Reference value :  6.25022e-06
 Reference value :  6.25023e-06
 Reference value :  6.25027e-06
 Reference value :  6.25033e-06
 Reference value :  6.25041e-06
 Reference value :  6.25058e-06
 Reference value :  6.25076e-06
 Reference value :  6.25106e-06
 Reference value :  6.25165e-06
 Reference value :  6.25228e-06
 Reference value :  6.25298e-06
 Reference value :  6.25371e-06
 Reference value :  6.25463e-06
 Reference value :  6.25565e-06
 Reference value :  6.25691e-06
 Reference value :  6.25800e-06
 Reference value :  6.25913e-06
 Reference value :  6.26036e-06
 Reference value :  6.26214e-06
 Reference value :  6.26426e-06
 Reference value :  6.26807e-06
 Reference value :  6.27411e-06
 Reference value :  6.28473e-06
 Reference value :  6.30464e-06
 Reference value :  6.34444e-06
 Reference value :  6.42405e-06
 Reference value :  6.50000e-06
 Reference value :  6.50001e-06
 Reference value :  6.50003e-06
 Reference value :  6.50007e-06
 Reference value :  6.50010e-06
 Reference value :  6.50010e-06
 Reference value :  6.50010e-06
 Reference value :  6.50010e-06
 Reference value :  6.50011e-06
 Reference value :  6.50012e-06
 Reference value :  6.50013e-06
 Reference value :  6.50017e-06
 Reference value :  6.50023e-06
 Reference value :  6.50036e-06
 Reference value :  6.50063e-06
 Reference value :  6.50110e-06
 Reference value :  6.50176e-06
 Reference value :  6.50246e-06
 Reference value :  6.50308e-06
 Reference value :  6.50385e-06
 Reference value :  6.50480e-06
 Reference value :  6.50576e-06
 Reference value :  6.50670e-06
 Reference value :  6.50783e-06
 Reference value :  6.50900e-06
 Reference value :  6.51102e-06
 Reference value :  6.51290e-06
 Reference value :  6.51454e-06
 Reference value :  6.51627e-06
 Reference value :  6.51866e-06
 Reference value :  6.52099e-06
 Reference value :  6.52518e-06
 Reference value :  6.53096e-06
 Reference value :  6.54053e-06
 Reference value :  6.55632e-06
 Reference value :  6.58435e-06
 Reference value :  6.63272e-06
 Reference value :  6.72105e-06
 Reference value :  6.75010e-06
 Reference value :  6.75011e-06
 Reference value :  6.75013e-06
 Reference value :  6.75017e-06
 Reference value :  6.75020e-06
 Reference value :  6.75020e-06
 Reference value :  6.75020e-06
 Reference value :  6.75020e-06
 Reference value :  6.75021e-06
 Reference value :  6.75022e-06
 Reference value :  6.75023e-06
 Reference value :  6.75027e-06
 Reference value :  6.75033e-06
 Reference value :  6.75041e-06
 Reference value :  6.75058e-06
 Reference value :  6.75080e-06
 Reference value :  6.75107e-06
 Reference value :  6.75163e-06
 Reference value :  6.75225e-06
 Reference value :  6.75292e-06
 Reference value :  6.75365e-06
 Reference value :  6.75457e-06
 Reference value :  6.75558e-06
 Reference value :  6.75681e-06
 Reference value :  6.75779e-06
 Reference value :  6.75883e-06
 Reference value :  6.75987e-06
 Reference value :  6.76097e-06
 Reference value :  6.76218e-06
 Reference value :  6.76355e-06
 Reference value :  6.76503e-06
 Reference value :  6.76752e-06
 Reference value :  6.77020e-06
 Reference value :  6.77437e-06
 Reference value :  6.78089e-06
 Reference value :  6.79395e-06
 Reference value :  6.81483e-06
 Reference value :  6.85635e-06
 Reference value :  6.93938e-06
 Reference value :  7.00000e-06
 Reference value :  7.00001e-06
 Reference value :  7.00003e-06
 Reference value :  7.00007e-06
 Reference value :  7.00010e-06
 Reference value :  7.00010e-06
 Reference value :  7.00010e-06
 Reference value :  7.00010e-06
 Reference value :  7.00011e-06
 Reference value :  7.00012e-06
 Reference value :  7.00013e-06
 Reference value :  7.00017e-06
 Reference value :  7.00023e-06
 Reference value :  7.00036e-06
 Reference value :  7.00063e-06
 Reference value :  7.00109e-06
 Reference value :  7.00176e-06
 Reference value :  7.00246e-06
 Reference value :  7.00309e-06
 Reference value :  7.00385e-06
 Reference value :  7.00481e-06
 Reference value :  7.00571e-06
 Reference value :  7.00665e-06
 Reference value :  7.00739e-06
 Reference value :  7.00824e-06
 Reference value :  7.00911e-06
 Reference value :  7.00996e-06
 Reference value :  7.01105e-06
 Reference value :  7.01223e-06
 Reference value :  7.01457e-06
 Reference value :  7.01756e-06
 Reference value :  7.01965e-06
 Reference value :  7.02193e-06
 Reference value :  7.02400e-06
 Reference value :  7.02621e-06
 Reference value :  7.02807e-06
 Reference value :  7.02993e-06
 Reference value :  7.03160e-06
 Reference value :  7.03324e-06
 Reference value :  7.03540e-06
 Reference value :  7.03766e-06
 Reference value :  7.04087e-06
 Reference value :  7.04487e-06
 Reference value :  7.05052e-06
 Reference value :  7.05743e-06
 Reference value :  7.06489e-06
 Reference value :  7.07229e-06
 Reference value :  7.07911e-06
 Reference value :  7.08695e-06
 Reference value :  7.10148e-06
 Reference value :  7.11329e-06
 Reference value :  7.12907e-06
 Reference value :  7.15460e-06
 Reference value :  7.20535e-06
 Reference value :  7.25010e-06
 Reference value :  7.25011e-06
 Reference value :  7.25013e-06
 Reference value :  7.25017e-06
 Reference value :  7.25020e-06
 Reference value :  7.25020e-06
 Reference value :  7.25020e-06
 Reference value :  7.25020e-06
 Reference value :  7.25021e-06
 Reference value :  7.25022e-06
 Reference value :  7.25023e-06
 Reference value :  7.25027e-06
 Reference value :  7.25033e-06
 Reference value :  7.25042e-06
 Reference value :  7.25059e-06
 Reference value :  7.25077e-06
 Reference value :  7.25107e-06
 Reference value :  7.25168e-06
 Reference value :  7.25230e-06
 Reference value :  7.25299e-06
 Reference value :  7.25372e-06
 Reference value :  7.25465e-06
 Reference value :  7.25567e-06
 Reference value :  7.25662e-06
 Reference value :  7.25772e-06
 Reference value :  7.25884e-06
 Reference value :  7.25995e-06
 Reference value :  7.26171e-06
 Reference value :  7.26368e-06
 Reference value :  7.26737e-06
 Reference value :  7.27243e-06
 Reference value :  7.28257e-06
 Reference value :  7.30119e-06
 Reference value :  7.33662e-06
 Reference value :  7.40749e-06
 Reference value :  7.50000e-06
 Reference value :  7.50001e-06
 Reference value :  7.50003e-06
 Reference value :  7.50007e-06
 Reference value :  7.50010e-06
 Reference value :  7.50010e-06
 Reference value :  7.50010e-06
 Reference value :  7.50010e-06
 Reference value :  7.50011e-06
 Reference value :  7.50012e-06
 Reference value :  7.50013e-06
 Reference value :  7.50017e-06
 Reference value :  7.50023e-06
 Reference value :  7.50036e-06
 Reference value :  7.50063e-06
 Reference value :  7.50110e-06
 Reference value :  7.50172e-06
 Reference value :  7.50245e-06
 Reference value :  7.50308e-06
 Reference value :  7.50384e-06
 Reference value :  7.50479e-06
 Reference value :  7.50575e-06
 Reference value :  7.50668e-06
 Reference value :  7.50785e-06
 Reference value :  7.50906e-06
 Reference value :  7.51093e-06
 Reference value :  7.51293e-06
 Reference value :  7.51465e-06
 Reference value :  7.51645e-06
 Reference value :  7.51877e-06
 Reference value :  7.52119e-06
 Reference value :  7.52529e-06
 Reference value :  7.53097e-06
 Reference value :  7.54043e-06
 Reference value :  7.55664e-06
 Reference value :  7.58289e-06
 Reference value :  7.63105e-06
 Reference value :  7.71759e-06
 Reference value :  7.75010e-06
 Reference value :  7.75011e-06
 Reference value :  7.75013e-06
 Reference value :  7.75017e-06
 Reference value :  7.75020e-06
 Reference value :  7.75020e-06
 Reference value :  7.75020e-06
 Reference value :  7.75020e-06
 Reference value :  7.75021e-06
 Reference value :  7.75022e-06
 Reference value :  7.75023e-06
 Reference value :  7.75027e-06
 Reference value :  7.75033e-06
 Reference value :  7.75042e-06
 Reference value :  7.75059e-06
 Reference value :  7.75082e-06
 Reference value :  7.75109e-06
 Reference value :  7.75165e-06
 Reference value :  7.75226e-06
 Reference value :  7.75292e-06
 Reference value :  7.75365e-06
 Reference value :  7.75457e-06
 Reference value :  7.75558e-06
 Reference value :  7.75658e-06
 Reference value :  7.75763e-06
 Reference value :  7.75858e-06
 Reference value :  7.75957e-06
 Reference value :  7.76064e-06
 Reference value :  7.76189e-06
 Reference value :  7.76437e-06
 Reference value :  7.76854e-06
 Reference value :  7.77498e-06
 Reference value :  7.78786e-06
 Reference value :  7.81362e-06
 Reference value :  7.86515e-06
 Reference value :  7.96820e-06
 Reference value :  8.00000e-06
 Reference value :  8.00001e-06
 Reference value :  8.00003e-06
 Reference value :  8.00007e-06
 Reference value :  8.00010e-06
 Reference value :  8.00010e-06
 Reference value :  8.00010e-06
 Reference value :  8.00010e-06
 Reference value :  8.00011e-06
 Reference value :  8.00012e-06
 Reference value :  8.00013e-06
 Reference value :  8.00017e-06
 Reference value :  8.00023e-06
 Reference value :  8.00036e-06
 Reference value :  8.00063e-06
 Reference value :  8.00110e-06
 Reference value :  8.00172e-06
 Reference value :  8.00245e-06
 Reference value :  8.00308e-06
 Reference value :  8.00385e-06
 Reference value :  8.00482e-06
 Reference value :  8.00575e-06
 Reference value :  8.00670e-06
 Reference value :  8.00756e-06
 Reference value :  8.00850e-06
 Reference value :  8.00954e-06
 Reference value :  8.01069e-06
 Reference value :  8.01242e-06
 Reference value :  8.01395e-06
 Reference value :  8.01557e-06
 Reference value :  8.01724e-06
 Reference value :  8.01905e-06
 Reference value :  8.02268e-06
 Reference value :  8.02811e-06
 Reference value :  8.03700e-06
 Reference value :  8.05479e-06
 Reference value :  8.09038e-06
 Reference value :  8.16155e-06
 Reference value :  8.25010e-06
 Reference value :  8.25011e-06
 Reference value :  8.25013e-06
 Reference value :  8.25017e-06
 Reference value :  8.25020e-06
 Reference value :  8.25020e-06
 Reference value :  8.25020e-06
 Reference value :  8.25020e-06
 Reference value :  8.25021e-06
 Reference value :  8.25022e-06
 Reference value :  8.25023e-06
 Reference value :  8.25027e-06
 Reference value :  8.25033e-06
 Reference value :  8.25047e-06
 Reference value :  8.25064e-06
 Reference value :  8.25085e-06
 Reference value :  8.25127e-06
 Reference value :  8.25193e-06
 Reference value :  8.25261e-06
 Reference value :  8.25331e-06
 Reference value :  8.25422e-06
 Reference value :  8.25545e-06
 Reference value :  8.25660e-06
 Reference value :  8.25789e-06
 Reference value :  8.25953e-06
 Reference value :  8.26158e-06
 Reference value :  8.26425e-06
 Reference value :  8.26765e-06
 Reference value :  8.27258e-06
 Reference value :  8.28244e-06
 Reference value :  8.29642e-06
 Reference value :  8.32436e-06
 Reference value :  8.38026e-06
 Reference value :  8.48707e-06
 Reference value :  8.50000e-06
No. of Data Rows : 1399
ngspice-44 done
