
Note: Compatibility modes selected: hs a


Circuit: ** sch_path: /home/audrey/cace/sar-adc-using-sky130-pdk/runs/run_2025-08-29_17-48-37/parameters/power/run_06/power_consumption.sch

option SCALE: Scale is set to 1e-06 for instance and model parameters
option SCALE: Scale is set to 1e-06 for instance and model parameters
option SCALE: Scale is set to 1e-06 for instance and model parameters
option SCALE: Scale is set to 1e-06 for instance and model parameters
Doing analysis at TEMP = 27.000000 and TNOM = 27.000000

Using KLU as Direct Linear Solver
Operating point simulation skipped by 'uic',
  now using transient initial conditions.
 Reference value :  5.00000e-12
 Reference value :  5.42000e-12
 Reference value :  8.76610e-12
 Reference value :  3.44781e-11
 Reference value :  1.06589e-10
 Reference value :  3.22679e-10
 Reference value :  5.00000e-10
 Reference value :  5.80590e-10
 Reference value :  8.72656e-10
 Reference value :  1.15125e-09
 Reference value :  1.51647e-09
 Reference value :  2.00174e-09
 Reference value :  3.30814e-09
 Reference value :  4.94725e-09
 Reference value :  6.98264e-09
 Reference value :  8.05359e-09
 Reference value :  8.84777e-09
 Reference value :  1.03415e-08
 Reference value :  1.23123e-08
 Reference value :  1.36742e-08
 Reference value :  1.50262e-08
 Reference value :  1.59776e-08
 Reference value :  1.68757e-08
 Reference value :  1.77297e-08
 Reference value :  2.20555e-08
 Reference value :  2.50400e-08
 Reference value :  3.62015e-08
 Reference value :  6.08404e-08
 Reference value :  1.16830e-07
 Reference value :  2.87794e-07
 Reference value :  3.61315e-07
 Reference value :  3.99476e-07
 Reference value :  4.36137e-07
 Reference value :  5.00000e-07
 Reference value :  5.06906e-07
 Reference value :  5.42522e-07
 Reference value :  5.67372e-07
 Reference value :  6.17073e-07
 Reference value :  8.29543e-07
 Reference value :  1.00055e-06
 Reference value :  1.00085e-06
 Reference value :  1.00103e-06
 Reference value :  1.00120e-06
 Reference value :  1.00139e-06
 Reference value :  1.00199e-06
 Reference value :  1.00243e-06
 Reference value :  1.00354e-06
 Reference value :  1.00432e-06
 Reference value :  1.00486e-06
 Reference value :  1.00547e-06
 Reference value :  1.00695e-06
 Reference value :  1.00933e-06
 Reference value :  1.01355e-06
 Reference value :  1.02562e-06
 Reference value :  1.06254e-06
 Reference value :  1.18870e-06
 Reference value :  1.35643e-06
 Reference value :  2.00000e-06
 Reference value :  2.00005e-06
 Reference value :  2.00035e-06
 Reference value :  2.00053e-06
 Reference value :  2.00074e-06
 Reference value :  2.00151e-06
 Reference value :  2.00196e-06
 Reference value :  2.00235e-06
 Reference value :  2.00334e-06
 Reference value :  2.00402e-06
 Reference value :  2.00477e-06
 Reference value :  2.00546e-06
 Reference value :  2.00649e-06
 Reference value :  2.00901e-06
 Reference value :  2.01023e-06
 Reference value :  2.01148e-06
 Reference value :  2.01306e-06
 Reference value :  2.01477e-06
 Reference value :  2.01623e-06
 Reference value :  2.01793e-06
 Reference value :  2.02254e-06
 Reference value :  2.03340e-06
 Reference value :  2.09620e-06
 Reference value :  2.58161e-06
 Reference value :  3.00055e-06
 Reference value :  3.00085e-06
 Reference value :  3.00103e-06
 Reference value :  3.00123e-06
 Reference value :  3.00175e-06
 Reference value :  3.00221e-06
 Reference value :  3.00263e-06
 Reference value :  3.00387e-06
 Reference value :  3.00441e-06
 Reference value :  3.00504e-06
 Reference value :  3.00565e-06
 Reference value :  3.00629e-06
 Reference value :  3.00718e-06
 Reference value :  3.00897e-06
 Reference value :  3.01124e-06
 Reference value :  3.01262e-06
 Reference value :  3.01843e-06
 Reference value :  3.03458e-06
 Reference value :  3.07877e-06
 Reference value :  3.24087e-06
 Reference value :  3.45701e-06
 Reference value :  4.00000e-06
 Reference value :  4.00005e-06
 Reference value :  4.00035e-06
 Reference value :  4.00050e-06
 Reference value :  4.00053e-06
 Reference value :  4.00074e-06
 Reference value :  4.00151e-06
 Reference value :  4.00238e-06
 Reference value :  4.00286e-06
 Reference value :  4.00342e-06
 Reference value :  4.00402e-06
 Reference value :  4.00453e-06
 Reference value :  4.00582e-06
 Reference value :  4.00643e-06
 Reference value :  4.00795e-06
 Reference value :  4.01007e-06
 Reference value :  4.01120e-06
 Reference value :  4.01234e-06
 Reference value :  4.01354e-06
 Reference value :  4.01440e-06
 Reference value :  4.01630e-06
 Reference value :  4.01847e-06
 Reference value :  4.02145e-06
 Reference value :  4.02678e-06
 Reference value :  4.04156e-06
 Reference value :  4.08681e-06
 Reference value :  4.12357e-06
 Reference value :  4.15460e-06
 Reference value :  4.17741e-06
 Reference value :  4.19243e-06
 Reference value :  4.20350e-06
 Reference value :  4.23302e-06
 Reference value :  4.27645e-06
 Reference value :  4.42505e-06
 Reference value :  4.65616e-06
 Reference value :  5.00050e-06
 Reference value :  5.00065e-06
 Reference value :  5.00100e-06
 Reference value :  5.00110e-06
 Reference value :  5.00149e-06
 Reference value :  5.00221e-06
 Reference value :  5.00263e-06
 Reference value :  5.00387e-06
 Reference value :  5.00443e-06
 Reference value :  5.00570e-06
 Reference value :  5.00731e-06
 Reference value :  5.00984e-06
 Reference value :  5.01216e-06
 Reference value :  5.03918e-06
 Reference value :  5.25048e-06
 Reference value :  5.97497e-06
 Reference value :  6.00000e-06
 Reference value :  6.00015e-06
 Reference value :  6.00050e-06
 Reference value :  6.00074e-06
 Reference value :  6.00196e-06
 Reference value :  6.00286e-06
 Reference value :  6.00342e-06
 Reference value :  6.00463e-06
 Reference value :  6.00529e-06
 Reference value :  6.00630e-06
 Reference value :  6.00818e-06
 Reference value :  6.00913e-06
 Reference value :  6.01117e-06
 Reference value :  6.01885e-06
 Reference value :  6.04016e-06
 Reference value :  6.11213e-06
 Reference value :  6.20672e-06
 Reference value :  6.77425e-06
 Reference value :  7.00055e-06
 Reference value :  7.00085e-06
 Reference value :  7.00110e-06
 Reference value :  7.00149e-06
 Reference value :  7.00175e-06
 Reference value :  7.00263e-06
 Reference value :  7.00387e-06
 Reference value :  7.00441e-06
 Reference value :  7.00564e-06
 Reference value :  7.00628e-06
 Reference value :  7.00712e-06
 Reference value :  7.00949e-06
 Reference value :  7.02196e-06
 Reference value :  7.06302e-06
 Reference value :  7.22725e-06
 Reference value :  7.44622e-06
 Reference value :  8.00015e-06
 Reference value :  8.00050e-06
 Reference value :  8.00060e-06
 Reference value :  8.00102e-06
 Reference value :  8.00196e-06
 Reference value :  8.00238e-06
 Reference value :  8.00342e-06
 Reference value :  8.00452e-06
 Reference value :  8.00510e-06
 Reference value :  8.00579e-06
 Reference value :  8.00637e-06
 Reference value :  8.00784e-06
 Reference value :  8.01010e-06
 Reference value :  8.01293e-06
 Reference value :  8.01405e-06
 Reference value :  8.01623e-06
 Reference value :  8.01728e-06
 Reference value :  8.01958e-06
 Reference value :  8.02294e-06
 Reference value :  8.03171e-06
 Reference value :  8.05499e-06
 Reference value :  8.07100e-06
 Reference value :  8.09672e-06
 Reference value :  8.10687e-06
 Reference value :  8.11639e-06
 Reference value :  8.12938e-06
 Reference value :  8.15185e-06
 Reference value :  8.20244e-06
 Reference value :  8.32047e-06
 Reference value :  8.61140e-06
 Reference value :  9.00050e-06
 Reference value :  9.00055e-06
 Reference value :  9.00085e-06
 Reference value :  9.00103e-06
 Reference value :  9.00123e-06
 Reference value :  9.00175e-06
 Reference value :  9.00263e-06
 Reference value :  9.00387e-06
 Reference value :  9.00439e-06
 Reference value :  9.00552e-06
 Reference value :  9.00706e-06
 Reference value :  9.01154e-06
 Reference value :  9.01475e-06
 Reference value :  9.02117e-06
 Reference value :  9.05935e-06
 Reference value :  9.11005e-06
 Reference value :  9.21145e-06
 Reference value :  9.81986e-06
 Reference value :  1.00000e-05
 Reference value :  1.00003e-05
 Reference value :  1.00006e-05
 Reference value :  1.00015e-05
 Reference value :  1.00024e-05
 Reference value :  1.00028e-05
 Reference value :  1.00033e-05
 Reference value :  1.00040e-05
 Reference value :  1.00047e-05
 Reference value :  1.00064e-05
 Reference value :  1.00086e-05
 Reference value :  1.00107e-05
 Reference value :  1.00120e-05
 Reference value :  1.00194e-05
 Reference value :  1.00549e-05
 Reference value :  1.04761e-05
 Reference value :  1.10005e-05
 Reference value :  1.10006e-05
 Reference value :  1.10008e-05
 Reference value :  1.10010e-05
 Reference value :  1.10012e-05
 Reference value :  1.10017e-05
 Reference value :  1.10026e-05
 Reference value :  1.10039e-05
 Reference value :  1.10044e-05
 Reference value :  1.10056e-05
 Reference value :  1.10071e-05
 Reference value :  1.10080e-05
 Reference value :  1.10098e-05
 Reference value :  1.10111e-05
 Reference value :  1.10125e-05
 Reference value :  1.10181e-05
 Reference value :  1.10331e-05
 Reference value :  1.10736e-05
 Reference value :  1.12132e-05
 Reference value :  1.13994e-05
 Reference value :  1.20000e-05
 Reference value :  1.20003e-05
 Reference value :  1.20005e-05
 Reference value :  1.20006e-05
 Reference value :  1.20010e-05
 Reference value :  1.20015e-05
 Reference value :  1.20024e-05
 Reference value :  1.20034e-05
 Reference value :  1.20045e-05
 Reference value :  1.20058e-05
 Reference value :  1.20064e-05
 Reference value :  1.20080e-05
 Reference value :  1.20089e-05
 Reference value :  1.20101e-05
 Reference value :  1.20123e-05
 Reference value :  1.20135e-05
 Reference value :  1.20144e-05
 Reference value :  1.20163e-05
 Reference value :  1.20184e-05
 Reference value :  1.20197e-05
 Reference value :  1.20232e-05
 Reference value :  1.20413e-05
 Reference value :  1.20494e-05
 Reference value :  1.20575e-05
 Reference value :  1.20614e-05
 Reference value :  1.20692e-05
 Reference value :  1.20738e-05
 Reference value :  1.20793e-05
 Reference value :  1.20852e-05
 Reference value :  1.21109e-05
 Reference value :  1.21624e-05
 Reference value :  1.22661e-05
 Reference value :  1.27404e-05
 Reference value :  1.30006e-05
 Reference value :  1.30009e-05
 Reference value :  1.30010e-05
 Reference value :  1.30012e-05
 Reference value :  1.30022e-05
 Reference value :  1.30032e-05
 Reference value :  1.30044e-05
 Reference value :  1.30051e-05
 Reference value :  1.30057e-05
 Reference value :  1.30063e-05
 Reference value :  1.30083e-05
 Reference value :  1.30122e-05
 Reference value :  1.30161e-05
 Reference value :  1.30241e-05
 Reference value :  1.30387e-05
 Reference value :  1.31265e-05
 Reference value :  1.34776e-05
 Reference value :  1.39457e-05
 Reference value :  1.40002e-05
 Reference value :  1.40005e-05
 Reference value :  1.40006e-05
 Reference value :  1.40007e-05
 Reference value :  1.40010e-05
 Reference value :  1.40020e-05
 Reference value :  1.40029e-05
 Reference value :  1.40046e-05
 Reference value :  1.40063e-05
 Reference value :  1.40082e-05
 Reference value :  1.40101e-05
 Reference value :  1.40112e-05
 Reference value :  1.40147e-05
 Reference value :  1.40260e-05
 Reference value :  1.40648e-05
 Reference value :  1.42064e-05
 Reference value :  1.47728e-05
 Reference value :  1.50005e-05
 Reference value :  1.50009e-05
 Reference value :  1.50010e-05
 Reference value :  1.50012e-05
 Reference value :  1.50017e-05
 Reference value :  1.50026e-05
 Reference value :  1.50039e-05
 Reference value :  1.50044e-05
 Reference value :  1.50056e-05
 Reference value :  1.50071e-05
 Reference value :  1.50117e-05
 Reference value :  1.50356e-05
 Reference value :  1.51177e-05
 Reference value :  1.58835e-05
 Reference value :  1.60001e-05
 Reference value :  1.60005e-05
 Reference value :  1.60006e-05
 Reference value :  1.60010e-05
 Reference value :  1.60020e-05
 Reference value :  1.60024e-05
 Reference value :  1.60034e-05
 Reference value :  1.60045e-05
 Reference value :  1.60051e-05
 Reference value :  1.60058e-05
 Reference value :  1.60064e-05
 Reference value :  1.60078e-05
 Reference value :  1.60101e-05
 Reference value :  1.60116e-05
 Reference value :  1.60131e-05
 Reference value :  1.60142e-05
 Reference value :  1.60164e-05
 Reference value :  1.60175e-05
 Reference value :  1.60198e-05
 Reference value :  1.60267e-05
 Reference value :  1.60312e-05
 Reference value :  1.60438e-05
 Reference value :  1.60512e-05
 Reference value :  1.60567e-05
 Reference value :  1.60673e-05
 Reference value :  1.60790e-05
 Reference value :  1.61067e-05
 Reference value :  1.61486e-05
 Reference value :  1.62519e-05
 Reference value :  1.65324e-05
 Reference value :  1.70005e-05
 Reference value :  1.70007e-05
 Reference value :  1.70010e-05
 Reference value :  1.70011e-05
 Reference value :  1.70014e-05
 Reference value :  1.70021e-05
 Reference value :  1.70031e-05
 Reference value :  1.70045e-05
 Reference value :  1.70050e-05
 Reference value :  1.70057e-05
 Reference value :  1.70063e-05
 Reference value :  1.70081e-05
 Reference value :  1.70119e-05
 Reference value :  1.70232e-05
 Reference value :  1.70575e-05
 Reference value :  1.70958e-05
 Reference value :  1.73126e-05
 Reference value :  1.80000e-05
 Reference value :  1.80002e-05
 Reference value :  1.80005e-05
 Reference value :  1.80005e-05
 Reference value :  1.80007e-05
 Reference value :  1.80015e-05
 Reference value :  1.80021e-05
 Reference value :  1.80026e-05
 Reference value :  1.80038e-05
 Reference value :  1.80044e-05
 Reference value :  1.80059e-05
 Reference value :  1.80070e-05
 Reference value :  1.80077e-05
 Reference value :  1.80085e-05
 Reference value :  1.80093e-05
 Reference value :  1.80103e-05
 Reference value :  1.80113e-05
 Reference value :  1.80194e-05
 Reference value :  1.80465e-05
 Reference value :  1.81548e-05
 Reference value :  1.90005e-05
 Reference value :  1.90007e-05
 Reference value :  1.90009e-05
 Reference value :  1.90010e-05
 Reference value :  1.90012e-05
 Reference value :  1.90014e-05
 Reference value :  1.90017e-05
 Reference value :  1.90025e-05
 Reference value :  1.90037e-05
 Reference value :  1.90051e-05
 Reference value :  1.90058e-05
 Reference value :  1.90065e-05
 Reference value :  1.90081e-05
 Reference value :  1.90099e-05
 Reference value :  1.90128e-05
 Reference value :  1.90180e-05
 Reference value :  1.90319e-05
 Reference value :  1.90696e-05
 Reference value :  1.91978e-05
 Reference value :  1.93645e-05
 Reference value :  2.00001e-05
 Reference value :  2.00005e-05
 Reference value :  2.00007e-05
 Reference value :  2.00015e-05
 Reference value :  2.00021e-05
 Reference value :  2.00026e-05
 Reference value :  2.00037e-05
 Reference value :  2.00049e-05
 Reference value :  2.00060e-05
 Reference value :  2.00074e-05
 Reference value :  2.00092e-05
 Reference value :  2.00113e-05
 Reference value :  2.00136e-05
 Reference value :  2.00144e-05
 Reference value :  2.00152e-05
 Reference value :  2.00162e-05
 Reference value :  2.00173e-05
 Reference value :  2.00183e-05
 Reference value :  2.00195e-05
 Reference value :  2.00229e-05
 Reference value :  2.00251e-05
 Reference value :  2.00273e-05
 Reference value :  2.00301e-05
 Reference value :  2.00327e-05
 Reference value :  2.00348e-05
 Reference value :  2.00389e-05
 Reference value :  2.00448e-05
 Reference value :  2.00575e-05
 Reference value :  2.00886e-05
 Reference value :  2.01634e-05
 Reference value :  2.02238e-05
 Reference value :  2.03447e-05
 Reference value :  2.09870e-05
 Reference value :  2.10005e-05
 Reference value :  2.10005e-05
 Reference value :  2.10006e-05
 Reference value :  2.10008e-05
 Reference value :  2.10010e-05
 Reference value :  2.10010e-05
 Reference value :  2.10011e-05
 Reference value :  2.10012e-05
 Reference value :  2.10014e-05
 Reference value :  2.10021e-05
 Reference value :  2.10025e-05
 Reference value :  2.10037e-05
 Reference value :  2.10052e-05
 Reference value :  2.10065e-05
 Reference value :  2.10074e-05
 Reference value :  2.10083e-05
 Reference value :  2.10363e-05
 Reference value :  2.11775e-05
 Reference value :  2.20000e-05
 Reference value :  2.20000e-05
 Reference value :  2.20001e-05
 Reference value :  2.20005e-05
 Reference value :  2.20005e-05
 Reference value :  2.20006e-05
 Reference value :  2.20010e-05
 Reference value :  2.20015e-05
 Reference value :  2.20021e-05
 Reference value :  2.20026e-05
 Reference value :  2.20031e-05
 Reference value :  2.20037e-05
 Reference value :  2.20044e-05
 Reference value :  2.20051e-05
 Reference value :  2.20058e-05
 Reference value :  2.20068e-05
 Reference value :  2.20075e-05
 Reference value :  2.20084e-05
 Reference value :  2.20093e-05
 Reference value :  2.20103e-05
 Reference value :  2.20114e-05
 Reference value :  2.20150e-05
 Reference value :  2.20280e-05
 Reference value :  2.20439e-05
 Reference value :  2.20754e-05
 Reference value :  2.21355e-05
 Reference value :  2.22557e-05
 Reference value :  2.24961e-05
 Reference value :  2.30005e-05
 Reference value :  2.30005e-05
 Reference value :  2.30006e-05
 Reference value :  2.30010e-05
 Reference value :  2.30011e-05
 Reference value :  2.30014e-05
 Reference value :  2.30021e-05
 Reference value :  2.30031e-05
 Reference value :  2.30046e-05
 Reference value :  2.30051e-05
 Reference value :  2.30073e-05
 Reference value :  2.30120e-05
 Reference value :  2.30333e-05
 Reference value :  2.30889e-05
 Reference value :  2.40002e-05
 Reference value :  2.40005e-05
 Reference value :  2.40007e-05
 Reference value :  2.40015e-05
 Reference value :  2.40021e-05
 Reference value :  2.40026e-05
 Reference value :  2.40037e-05
 Reference value :  2.40049e-05
 Reference value :  2.40060e-05
 Reference value :  2.40074e-05
 Reference value :  2.40096e-05
 Reference value :  2.40125e-05
 Reference value :  2.40149e-05
 Reference value :  2.40171e-05
 Reference value :  2.40195e-05
 Reference value :  2.40228e-05
 Reference value :  2.40368e-05
 Reference value :  2.40451e-05
 Reference value :  2.40540e-05
 Reference value :  2.40661e-05
 Reference value :  2.40731e-05
 Reference value :  2.40965e-05
 Reference value :  2.41580e-05
 Reference value :  2.43557e-05
 Reference value :  2.50005e-05
 Reference value :  2.50006e-05
 Reference value :  2.50010e-05
 Reference value :  2.50011e-05
 Reference value :  2.50014e-05
 Reference value :  2.50021e-05
 Reference value :  2.50037e-05
 Reference value :  2.50050e-05
 Reference value :  2.50063e-05
 Reference value :  2.50081e-05
 Reference value :  2.50159e-05
 Reference value :  2.50574e-05
 Reference value :  2.53048e-05
 Reference value :  2.60001e-05
 Reference value :  2.60005e-05
 Reference value :  2.60006e-05
 Reference value :  2.60015e-05
 Reference value :  2.60021e-05
 Reference value :  2.60026e-05
 Reference value :  2.60038e-05
 Reference value :  2.60052e-05
 Reference value :  2.60070e-05
 Reference value :  2.60077e-05
 Reference value :  2.60085e-05
 Reference value :  2.60094e-05
 Reference value :  2.60113e-05
 Reference value :  2.60148e-05
 Reference value :  2.60281e-05
 Reference value :  2.60802e-05
 Reference value :  2.65647e-05
 Reference value :  2.70007e-05
 Reference value :  2.70010e-05
 Reference value :  2.70011e-05
 Reference value :  2.70014e-05
 Reference value :  2.70017e-05
 Reference value :  2.70025e-05
 Reference value :  2.70037e-05
 Reference value :  2.70051e-05
 Reference value :  2.70065e-05
 Reference value :  2.70081e-05
 Reference value :  2.70111e-05
 Reference value :  2.70179e-05
 Reference value :  2.70461e-05
 Reference value :  2.71916e-05
 Reference value :  2.80000e-05
 Reference value :  2.80005e-05
 Reference value :  2.80006e-05
 Reference value :  2.80010e-05
 Reference value :  2.80021e-05
 Reference value :  2.80026e-05
 Reference value :  2.80037e-05
 Reference value :  2.80049e-05
 Reference value :  2.80060e-05
 Reference value :  2.80074e-05
 Reference value :  2.80092e-05
 Reference value :  2.80113e-05
 Reference value :  2.80136e-05
 Reference value :  2.80152e-05
 Reference value :  2.80170e-05
 Reference value :  2.80204e-05
 Reference value :  2.80352e-05
 Reference value :  2.80840e-05
 Reference value :  2.81350e-05
 Reference value :  2.82116e-05
 Reference value :  2.82927e-05
 Reference value :  2.83929e-05
 Reference value :  2.87236e-05
 Reference value :  2.90006e-05
 Reference value :  2.90009e-05
 Reference value :  2.90010e-05
 Reference value :  2.90014e-05
 Reference value :  2.90021e-05
 Reference value :  2.90031e-05
 Reference value :  2.90046e-05
 Reference value :  2.90058e-05
 Reference value :  2.90074e-05
 Reference value :  2.90100e-05
 Reference value :  2.90239e-05
 Reference value :  2.90986e-05
 Reference value :  2.96454e-05
 Reference value :  3.00002e-05
 Reference value :  3.00005e-05
 Reference value :  3.00006e-05
 Reference value :  3.00010e-05
 Reference value :  3.00021e-05
 Reference value :  3.00026e-05
 Reference value :  3.00044e-05
 Reference value :  3.00058e-05
 Reference value :  3.00075e-05
 Reference value :  3.00093e-05
 Reference value :  3.00114e-05
 Reference value :  3.00280e-05
 Reference value :  3.02556e-05
 Reference value :  3.10005e-05
 Reference value :  3.10010e-05
 Reference value :  3.10014e-05
 Reference value :  3.10025e-05
 Reference value :  3.10046e-05
 Reference value :  3.10051e-05
 Reference value :  3.10073e-05
 Reference value :  3.10154e-05
 Reference value :  3.10886e-05
 Reference value :  3.15645e-05
 Reference value :  3.20003e-05
 Reference value :  3.20006e-05
 Reference value :  3.20015e-05
 Reference value :  3.20026e-05
 Reference value :  3.20044e-05
 Reference value :  3.20060e-05
 Reference value :  3.20089e-05
 Reference value :  3.20141e-05
 Reference value :  3.20831e-05
 Reference value :  3.30006e-05
 Reference value :  3.30010e-05
 Reference value :  3.30017e-05
 Reference value :  3.30038e-05
 Reference value :  3.30068e-05
 Reference value :  3.30134e-05
 Reference value :  3.31480e-05
No. of Data Rows : 1262
ngspice-44 done
