
Note: Compatibility modes selected: hs a


Circuit: ** sch_path: /home/ece/cace/sar-adc-using-sky130-pdk/runs/run_2025-09-12_17-39-02/parameters/sndr/run_0/sndr_enob_fom.sch

option SCALE: Scale is set to 1e-06 for instance and model parameters
option SCALE: Scale is set to 1e-06 for instance and model parameters
option SCALE: Scale is set to 1e-06 for instance and model parameters
option SCALE: Scale is set to 1e-06 for instance and model parameters
Doing analysis at TEMP = 27.000000 and TNOM = 27.000000

Using KLU as Direct Linear Solver
Operating point simulation skipped by 'uic',
  now using transient initial conditions.
 Reference value :  1.00000e-12
 Reference value :  1.02772e-12
 Reference value :  1.08316e-12
 Reference value :  1.19404e-12
 Reference value :  1.33846e-12
 Reference value :  1.62729e-12
 Reference value :  2.20497e-12
 Reference value :  3.05953e-12
 Reference value :  3.96250e-12
 Reference value :  5.17575e-12
 Reference value :  6.89209e-12
 Reference value :  1.02386e-11
 Reference value :  1.40764e-11
 Reference value :  2.08888e-11
 Reference value :  2.76139e-11
 Reference value :  3.66767e-11
 Reference value :  4.79476e-11
 Reference value :  6.56211e-11
 Reference value :  8.62874e-11
 Reference value :  1.00000e-10
 Reference value :  1.01149e-10
 Reference value :  1.03446e-10
 Reference value :  1.08041e-10
 Reference value :  1.17230e-10
 Reference value :  1.35608e-10
 Reference value :  1.72365e-10
 Reference value :  2.45878e-10
 Reference value :  3.92904e-10
 Reference value :  5.52137e-10
 Reference value :  8.08895e-10
 Reference value :  1.15022e-09
 Reference value :  1.56643e-09
 Reference value :  2.22793e-09
 Reference value :  2.96745e-09
 Reference value :  3.81786e-09
 Reference value :  4.64814e-09
 Reference value :  5.51184e-09
 Reference value :  6.73462e-09
 Reference value :  7.94169e-09
 Reference value :  9.11844e-09
 Reference value :  9.93865e-09
 Reference value :  1.07681e-08
 Reference value :  1.16746e-08
 Reference value :  1.26322e-08
 Reference value :  1.45476e-08
 Reference value :  1.70211e-08
 Reference value :  2.12875e-08
 Reference value :  2.54413e-08
 Reference value :  2.89956e-08
 Reference value :  3.28470e-08
 Reference value :  3.59743e-08
 Reference value :  3.92135e-08
 Reference value :  4.31260e-08
 Reference value :  4.90474e-08
 Reference value :  5.76043e-08
 Reference value :  7.28954e-08
 Reference value :  9.69199e-08
 Reference value :  1.44969e-07
 Reference value :  2.08396e-07
 Reference value :  2.50100e-07
 Reference value :  2.50110e-07
 Reference value :  2.50130e-07
 Reference value :  2.50170e-07
 Reference value :  2.50200e-07
 Reference value :  2.50201e-07
 Reference value :  2.50202e-07
 Reference value :  2.50204e-07
 Reference value :  2.50208e-07
 Reference value :  2.50216e-07
 Reference value :  2.50233e-07
 Reference value :  2.50266e-07
 Reference value :  2.50332e-07
 Reference value :  2.50408e-07
 Reference value :  2.50559e-07
 Reference value :  2.50706e-07
 Reference value :  2.51000e-07
 Reference value :  2.51329e-07
 Reference value :  2.51814e-07
 Reference value :  2.52369e-07
 Reference value :  2.52973e-07
 Reference value :  2.53861e-07
 Reference value :  2.54730e-07
 Reference value :  2.55539e-07
 Reference value :  2.56397e-07
 Reference value :  2.57284e-07
 Reference value :  2.58159e-07
 Reference value :  2.59693e-07
 Reference value :  2.61760e-07
 Reference value :  2.63982e-07
 Reference value :  2.67676e-07
 Reference value :  2.73181e-07
 Reference value :  2.84192e-07
 Reference value :  3.06213e-07
 Reference value :  3.46174e-07
 Reference value :  4.26095e-07
 Reference value :  5.00000e-07
 Reference value :  5.00010e-07
 Reference value :  5.00030e-07
 Reference value :  5.00070e-07
 Reference value :  5.00100e-07
 Reference value :  5.00104e-07
 Reference value :  5.00113e-07
 Reference value :  5.00130e-07
 Reference value :  5.00163e-07
 Reference value :  5.00231e-07
 Reference value :  5.00366e-07
 Reference value :  5.00553e-07
 Reference value :  5.00927e-07
 Reference value :  5.01510e-07
 Reference value :  5.02040e-07
 Reference value :  5.02609e-07
 Reference value :  5.03288e-07
 Reference value :  5.04079e-07
 Reference value :  5.04828e-07
 Reference value :  5.05642e-07
 Reference value :  5.06668e-07
 Reference value :  5.07755e-07
 Reference value :  5.09486e-07
 Reference value :  5.12227e-07
 Reference value :  5.14062e-07
 Reference value :  5.16137e-07
 Reference value :  5.18338e-07
 Reference value :  5.20723e-07
 Reference value :  5.23450e-07
 Reference value :  5.27988e-07
 Reference value :  5.34633e-07
 Reference value :  5.45822e-07
 Reference value :  5.65435e-07
 Reference value :  5.98748e-07
 Reference value :  6.59307e-07
 Reference value :  7.50100e-07
 Reference value :  7.50110e-07
 Reference value :  7.50130e-07
 Reference value :  7.50170e-07
 Reference value :  7.50200e-07
 Reference value :  7.50201e-07
 Reference value :  7.50202e-07
 Reference value :  7.50205e-07
 Reference value :  7.50211e-07
 Reference value :  7.50223e-07
 Reference value :  7.50247e-07
 Reference value :  7.50295e-07
 Reference value :  7.50390e-07
 Reference value :  7.50580e-07
 Reference value :  7.50954e-07
 Reference value :  7.51429e-07
 Reference value :  7.51992e-07
 Reference value :  7.52594e-07
 Reference value :  7.53250e-07
 Reference value :  7.54105e-07
 Reference value :  7.54725e-07
 Reference value :  7.55452e-07
 Reference value :  7.56121e-07
 Reference value :  7.56853e-07
 Reference value :  7.57765e-07
 Reference value :  7.58760e-07
 Reference value :  7.60750e-07
 Reference value :  7.62908e-07
 Reference value :  7.66537e-07
 Reference value :  7.71134e-07
 Reference value :  7.80328e-07
 Reference value :  7.98716e-07
 Reference value :  8.35491e-07
 Reference value :  9.09042e-07
 Reference value :  1.00000e-06
 Reference value :  1.00001e-06
 Reference value :  1.00003e-06
 Reference value :  1.00007e-06
 Reference value :  1.00010e-06
 Reference value :  1.00010e-06
 Reference value :  1.00011e-06
 Reference value :  1.00013e-06
 Reference value :  1.00016e-06
 Reference value :  1.00023e-06
 Reference value :  1.00036e-06
 Reference value :  1.00055e-06
 Reference value :  1.00092e-06
 Reference value :  1.00145e-06
 Reference value :  1.00198e-06
 Reference value :  1.00255e-06
 Reference value :  1.00322e-06
 Reference value :  1.00397e-06
 Reference value :  1.00472e-06
 Reference value :  1.00541e-06
 Reference value :  1.00613e-06
 Reference value :  1.00694e-06
 Reference value :  1.00770e-06
 Reference value :  1.00853e-06
 Reference value :  1.00971e-06
 Reference value :  1.01103e-06
 Reference value :  1.01329e-06
 Reference value :  1.01571e-06
 Reference value :  1.01765e-06
 Reference value :  1.01939e-06
 Reference value :  1.02066e-06
 Reference value :  1.02205e-06
 Reference value :  1.02362e-06
 Reference value :  1.02517e-06
 Reference value :  1.02703e-06
 Reference value :  1.02974e-06
 Reference value :  1.03265e-06
 Reference value :  1.03847e-06
 Reference value :  1.04760e-06
 Reference value :  1.06256e-06
 Reference value :  1.08252e-06
 Reference value :  1.11507e-06
 Reference value :  1.15093e-06
 Reference value :  1.18601e-06
 Reference value :  1.20198e-06
 Reference value :  1.21750e-06
 Reference value :  1.22746e-06
 Reference value :  1.23745e-06
 Reference value :  1.24739e-06
 Reference value :  1.25010e-06
 Reference value :  1.25011e-06
 Reference value :  1.25013e-06
 Reference value :  1.25017e-06
 Reference value :  1.25020e-06
 Reference value :  1.25020e-06
 Reference value :  1.25020e-06
 Reference value :  1.25021e-06
 Reference value :  1.25021e-06
 Reference value :  1.25022e-06
 Reference value :  1.25025e-06
 Reference value :  1.25029e-06
 Reference value :  1.25039e-06
 Reference value :  1.25058e-06
 Reference value :  1.25091e-06
 Reference value :  1.25141e-06
 Reference value :  1.25204e-06
 Reference value :  1.25262e-06
 Reference value :  1.25330e-06
 Reference value :  1.25413e-06
 Reference value :  1.25472e-06
 Reference value :  1.25541e-06
 Reference value :  1.25625e-06
 Reference value :  1.25722e-06
 Reference value :  1.25823e-06
 Reference value :  1.26023e-06
 Reference value :  1.26214e-06
 Reference value :  1.26533e-06
 Reference value :  1.26919e-06
 Reference value :  1.27691e-06
 Reference value :  1.29235e-06
 Reference value :  1.32322e-06
 Reference value :  1.38497e-06
 Reference value :  1.50000e-06
 Reference value :  1.50001e-06
 Reference value :  1.50003e-06
 Reference value :  1.50007e-06
 Reference value :  1.50010e-06
 Reference value :  1.50010e-06
 Reference value :  1.50011e-06
 Reference value :  1.50013e-06
 Reference value :  1.50016e-06
 Reference value :  1.50023e-06
 Reference value :  1.50037e-06
 Reference value :  1.50054e-06
 Reference value :  1.50090e-06
 Reference value :  1.50140e-06
 Reference value :  1.50191e-06
 Reference value :  1.50242e-06
 Reference value :  1.50304e-06
 Reference value :  1.50370e-06
 Reference value :  1.50457e-06
 Reference value :  1.50538e-06
 Reference value :  1.50630e-06
 Reference value :  1.50760e-06
 Reference value :  1.50904e-06
 Reference value :  1.51043e-06
 Reference value :  1.51184e-06
 Reference value :  1.51314e-06
 Reference value :  1.51457e-06
 Reference value :  1.51599e-06
 Reference value :  1.51762e-06
 Reference value :  1.52090e-06
 Reference value :  1.52653e-06
 Reference value :  1.53729e-06
 Reference value :  1.55880e-06
 Reference value :  1.60182e-06
 Reference value :  1.68787e-06
 Reference value :  1.75010e-06
 Reference value :  1.75011e-06
 Reference value :  1.75013e-06
 Reference value :  1.75017e-06
 Reference value :  1.75020e-06
 Reference value :  1.75020e-06
 Reference value :  1.75020e-06
 Reference value :  1.75021e-06
 Reference value :  1.75021e-06
 Reference value :  1.75022e-06
 Reference value :  1.75025e-06
 Reference value :  1.75029e-06
 Reference value :  1.75039e-06
 Reference value :  1.75058e-06
 Reference value :  1.75091e-06
 Reference value :  1.75141e-06
 Reference value :  1.75204e-06
 Reference value :  1.75262e-06
 Reference value :  1.75330e-06
 Reference value :  1.75415e-06
 Reference value :  1.75475e-06
 Reference value :  1.75545e-06
 Reference value :  1.75614e-06
 Reference value :  1.75688e-06
 Reference value :  1.75785e-06
 Reference value :  1.75890e-06
 Reference value :  1.76008e-06
 Reference value :  1.76151e-06
 Reference value :  1.76362e-06
 Reference value :  1.76564e-06
 Reference value :  1.76927e-06
 Reference value :  1.77381e-06
 Reference value :  1.78288e-06
 Reference value :  1.80102e-06
 Reference value :  1.83731e-06
 Reference value :  1.90987e-06
 Reference value :  2.00000e-06
 Reference value :  2.00001e-06
 Reference value :  2.00003e-06
 Reference value :  2.00007e-06
 Reference value :  2.00010e-06
 Reference value :  2.00010e-06
 Reference value :  2.00011e-06
 Reference value :  2.00013e-06
 Reference value :  2.00016e-06
 Reference value :  2.00023e-06
 Reference value :  2.00036e-06
 Reference value :  2.00054e-06
 Reference value :  2.00089e-06
 Reference value :  2.00139e-06
 Reference value :  2.00190e-06
 Reference value :  2.00243e-06
 Reference value :  2.00309e-06
 Reference value :  2.00375e-06
 Reference value :  2.00452e-06
 Reference value :  2.00515e-06
 Reference value :  2.00585e-06
 Reference value :  2.00653e-06
 Reference value :  2.00722e-06
 Reference value :  2.00797e-06
 Reference value :  2.00886e-06
 Reference value :  2.00988e-06
 Reference value :  2.01149e-06
 Reference value :  2.01378e-06
 Reference value :  2.01532e-06
 Reference value :  2.01706e-06
 Reference value :  2.01870e-06
 Reference value :  2.01995e-06
 Reference value :  2.02112e-06
 Reference value :  2.02221e-06
 Reference value :  2.02347e-06
 Reference value :  2.02497e-06
 Reference value :  2.02647e-06
 Reference value :  2.02900e-06
 Reference value :  2.03202e-06
 Reference value :  2.03808e-06
 Reference value :  2.04941e-06
 Reference value :  2.06775e-06
 Reference value :  2.08470e-06
 Reference value :  2.10015e-06
 Reference value :  2.11284e-06
 Reference value :  2.11831e-06
 Reference value :  2.12382e-06
 Reference value :  2.12967e-06
 Reference value :  2.13999e-06
 Reference value :  2.15311e-06
 Reference value :  2.17370e-06
 Reference value :  2.20443e-06
 Reference value :  2.25010e-06
 Reference value :  2.25011e-06
 Reference value :  2.25013e-06
 Reference value :  2.25017e-06
 Reference value :  2.25020e-06
 Reference value :  2.25020e-06
 Reference value :  2.25020e-06
 Reference value :  2.25021e-06
 Reference value :  2.25021e-06
 Reference value :  2.25022e-06
 Reference value :  2.25025e-06
 Reference value :  2.25029e-06
 Reference value :  2.25039e-06
 Reference value :  2.25057e-06
 Reference value :  2.25090e-06
 Reference value :  2.25139e-06
 Reference value :  2.25202e-06
 Reference value :  2.25260e-06
 Reference value :  2.25328e-06
 Reference value :  2.25412e-06
 Reference value :  2.25474e-06
 Reference value :  2.25544e-06
 Reference value :  2.25637e-06
 Reference value :  2.25722e-06
 Reference value :  2.25834e-06
 Reference value :  2.26035e-06
 Reference value :  2.26229e-06
 Reference value :  2.26554e-06
 Reference value :  2.26951e-06
 Reference value :  2.27744e-06
 Reference value :  2.29331e-06
 Reference value :  2.32505e-06
 Reference value :  2.38025e-06
 Reference value :  2.43931e-06
 Reference value :  2.50000e-06
 Reference value :  2.50001e-06
 Reference value :  2.50003e-06
 Reference value :  2.50007e-06
 Reference value :  2.50010e-06
 Reference value :  2.50010e-06
 Reference value :  2.50011e-06
 Reference value :  2.50013e-06
 Reference value :  2.50016e-06
 Reference value :  2.50023e-06
 Reference value :  2.50036e-06
 Reference value :  2.50054e-06
 Reference value :  2.50089e-06
 Reference value :  2.50139e-06
 Reference value :  2.50190e-06
 Reference value :  2.50244e-06
 Reference value :  2.50310e-06
 Reference value :  2.50375e-06
 Reference value :  2.50451e-06
 Reference value :  2.50537e-06
 Reference value :  2.50619e-06
 Reference value :  2.50749e-06
 Reference value :  2.50881e-06
 Reference value :  2.51007e-06
 Reference value :  2.51136e-06
 Reference value :  2.51299e-06
 Reference value :  2.51447e-06
 Reference value :  2.51618e-06
 Reference value :  2.51797e-06
 Reference value :  2.52157e-06
 Reference value :  2.52847e-06
 Reference value :  2.53991e-06
 Reference value :  2.56278e-06
 Reference value :  2.60853e-06
 Reference value :  2.70001e-06
 Reference value :  2.75010e-06
 Reference value :  2.75011e-06
 Reference value :  2.75013e-06
 Reference value :  2.75017e-06
 Reference value :  2.75020e-06
 Reference value :  2.75020e-06
 Reference value :  2.75020e-06
 Reference value :  2.75021e-06
 Reference value :  2.75021e-06
 Reference value :  2.75022e-06
 Reference value :  2.75025e-06
 Reference value :  2.75029e-06
 Reference value :  2.75039e-06
 Reference value :  2.75058e-06
 Reference value :  2.75091e-06
 Reference value :  2.75140e-06
 Reference value :  2.75198e-06
 Reference value :  2.75258e-06
 Reference value :  2.75323e-06
 Reference value :  2.75406e-06
 Reference value :  2.75468e-06
 Reference value :  2.75539e-06
 Reference value :  2.75604e-06
 Reference value :  2.75677e-06
 Reference value :  2.75766e-06
 Reference value :  2.75866e-06
 Reference value :  2.76065e-06
 Reference value :  2.76275e-06
 Reference value :  2.76630e-06
 Reference value :  2.77066e-06
 Reference value :  2.77939e-06
 Reference value :  2.79684e-06
 Reference value :  2.83175e-06
 Reference value :  2.90157e-06
 Reference value :  3.00000e-06
 Reference value :  3.00001e-06
 Reference value :  3.00003e-06
 Reference value :  3.00007e-06
 Reference value :  3.00010e-06
 Reference value :  3.00010e-06
 Reference value :  3.00011e-06
 Reference value :  3.00013e-06
 Reference value :  3.00016e-06
 Reference value :  3.00023e-06
 Reference value :  3.00036e-06
 Reference value :  3.00054e-06
 Reference value :  3.00089e-06
 Reference value :  3.00139e-06
 Reference value :  3.00190e-06
 Reference value :  3.00243e-06
 Reference value :  3.00310e-06
 Reference value :  3.00375e-06
 Reference value :  3.00453e-06
 Reference value :  3.00519e-06
 Reference value :  3.00590e-06
 Reference value :  3.00677e-06
 Reference value :  3.00753e-06
 Reference value :  3.00833e-06
 Reference value :  3.00950e-06
 Reference value :  3.01055e-06
 Reference value :  3.01259e-06
 Reference value :  3.01496e-06
 Reference value :  3.01682e-06
 Reference value :  3.01885e-06
 Reference value :  3.02022e-06
 Reference value :  3.02176e-06
 Reference value :  3.02314e-06
 Reference value :  3.02460e-06
 Reference value :  3.02631e-06
 Reference value :  3.02863e-06
 Reference value :  3.03108e-06
 Reference value :  3.03579e-06
 Reference value :  3.04214e-06
 Reference value :  3.05264e-06
 Reference value :  3.06355e-06
 Reference value :  3.07376e-06
 Reference value :  3.08552e-06
 Reference value :  3.09347e-06
 Reference value :  3.10095e-06
 Reference value :  3.10864e-06
 Reference value :  3.11645e-06
 Reference value :  3.12439e-06
 Reference value :  3.13339e-06
 Reference value :  3.14942e-06
 Reference value :  3.16731e-06
 Reference value :  3.19660e-06
 Reference value :  3.23938e-06
 Reference value :  3.25010e-06
 Reference value :  3.25011e-06
 Reference value :  3.25013e-06
 Reference value :  3.25017e-06
 Reference value :  3.25020e-06
 Reference value :  3.25020e-06
 Reference value :  3.25020e-06
 Reference value :  3.25021e-06
 Reference value :  3.25021e-06
 Reference value :  3.25022e-06
 Reference value :  3.25025e-06
 Reference value :  3.25029e-06
 Reference value :  3.25039e-06
 Reference value :  3.25058e-06
 Reference value :  3.25091e-06
 Reference value :  3.25140e-06
 Reference value :  3.25204e-06
 Reference value :  3.25262e-06
 Reference value :  3.25330e-06
 Reference value :  3.25414e-06
 Reference value :  3.25474e-06
 Reference value :  3.25542e-06
 Reference value :  3.25624e-06
 Reference value :  3.25725e-06
 Reference value :  3.25822e-06
 Reference value :  3.26016e-06
 Reference value :  3.26209e-06
 Reference value :  3.26524e-06
 Reference value :  3.26910e-06
 Reference value :  3.27681e-06
 Reference value :  3.29223e-06
 Reference value :  3.32308e-06
 Reference value :  3.38478e-06
 Reference value :  3.50000e-06
 Reference value :  3.50001e-06
 Reference value :  3.50003e-06
 Reference value :  3.50007e-06
 Reference value :  3.50010e-06
 Reference value :  3.50010e-06
 Reference value :  3.50011e-06
 Reference value :  3.50013e-06
 Reference value :  3.50016e-06
 Reference value :  3.50023e-06
 Reference value :  3.50037e-06
 Reference value :  3.50054e-06
 Reference value :  3.50090e-06
 Reference value :  3.50140e-06
 Reference value :  3.50191e-06
 Reference value :  3.50242e-06
 Reference value :  3.50304e-06
 Reference value :  3.50370e-06
 Reference value :  3.50456e-06
 Reference value :  3.50535e-06
 Reference value :  3.50629e-06
 Reference value :  3.50742e-06
 Reference value :  3.50872e-06
 Reference value :  3.50987e-06
 Reference value :  3.51106e-06
 Reference value :  3.51249e-06
 Reference value :  3.51408e-06
 Reference value :  3.51569e-06
 Reference value :  3.51757e-06
 Reference value :  3.52103e-06
 Reference value :  3.52604e-06
 Reference value :  3.53579e-06
 Reference value :  3.55422e-06
 Reference value :  3.58840e-06
 Reference value :  3.65304e-06
 Reference value :  3.71643e-06
 Reference value :  3.75010e-06
 Reference value :  3.75011e-06
 Reference value :  3.75013e-06
 Reference value :  3.75017e-06
 Reference value :  3.75020e-06
 Reference value :  3.75020e-06
 Reference value :  3.75020e-06
 Reference value :  3.75021e-06
 Reference value :  3.75021e-06
 Reference value :  3.75022e-06
 Reference value :  3.75025e-06
 Reference value :  3.75029e-06
 Reference value :  3.75039e-06
 Reference value :  3.75057e-06
 Reference value :  3.75090e-06
 Reference value :  3.75139e-06
 Reference value :  3.75202e-06
 Reference value :  3.75260e-06
 Reference value :  3.75328e-06
 Reference value :  3.75413e-06
 Reference value :  3.75473e-06
 Reference value :  3.75543e-06
 Reference value :  3.75612e-06
 Reference value :  3.75685e-06
 Reference value :  3.75780e-06
 Reference value :  3.75885e-06
 Reference value :  3.76096e-06
 Reference value :  3.76312e-06
 Reference value :  3.76691e-06
 Reference value :  3.77170e-06
 Reference value :  3.78129e-06
 Reference value :  3.80048e-06
 Reference value :  3.81983e-06
 Reference value :  3.85852e-06
 Reference value :  3.93592e-06
 Reference value :  4.00000e-06
 Reference value :  4.00001e-06
 Reference value :  4.00003e-06
 Reference value :  4.00007e-06
 Reference value :  4.00010e-06
 Reference value :  4.00010e-06
 Reference value :  4.00011e-06
 Reference value :  4.00013e-06
 Reference value :  4.00016e-06
 Reference value :  4.00023e-06
 Reference value :  4.00037e-06
 Reference value :  4.00054e-06
 Reference value :  4.00090e-06
 Reference value :  4.00140e-06
 Reference value :  4.00191e-06
 Reference value :  4.00245e-06
 Reference value :  4.00311e-06
 Reference value :  4.00378e-06
 Reference value :  4.00456e-06
 Reference value :  4.00521e-06
 Reference value :  4.00592e-06
 Reference value :  4.00683e-06
 Reference value :  4.00764e-06
 Reference value :  4.00848e-06
 Reference value :  4.00960e-06
 Reference value :  4.01079e-06
 Reference value :  4.01291e-06
 Reference value :  4.01548e-06
 Reference value :  4.01740e-06
 Reference value :  4.01905e-06
 Reference value :  4.02062e-06
 Reference value :  4.02226e-06
 Reference value :  4.02393e-06
 Reference value :  4.02568e-06
 Reference value :  4.02766e-06
 Reference value :  4.03043e-06
 Reference value :  4.03390e-06
 Reference value :  4.03817e-06
 Reference value :  4.04280e-06
 Reference value :  4.04649e-06
 Reference value :  4.04951e-06
 Reference value :  4.05241e-06
 Reference value :  4.05510e-06
 Reference value :  4.05802e-06
 Reference value :  4.06135e-06
 Reference value :  4.06520e-06
 Reference value :  4.07004e-06
 Reference value :  4.07609e-06
 Reference value :  4.08258e-06
 Reference value :  4.09003e-06
 Reference value :  4.10279e-06
 Reference value :  4.11697e-06
 Reference value :  4.13893e-06
 Reference value :  4.16815e-06
 Reference value :  4.20838e-06
 Reference value :  4.25010e-06
 Reference value :  4.25011e-06
 Reference value :  4.25013e-06
 Reference value :  4.25017e-06
 Reference value :  4.25020e-06
 Reference value :  4.25020e-06
 Reference value :  4.25020e-06
 Reference value :  4.25021e-06
 Reference value :  4.25021e-06
 Reference value :  4.25022e-06
 Reference value :  4.25025e-06
 Reference value :  4.25029e-06
 Reference value :  4.25039e-06
 Reference value :  4.25058e-06
 Reference value :  4.25091e-06
 Reference value :  4.25140e-06
 Reference value :  4.25204e-06
 Reference value :  4.25261e-06
 Reference value :  4.25330e-06
 Reference value :  4.25414e-06
 Reference value :  4.25474e-06
 Reference value :  4.25542e-06
 Reference value :  4.25624e-06
 Reference value :  4.25727e-06
 Reference value :  4.25823e-06
 Reference value :  4.26016e-06
 Reference value :  4.26210e-06
 Reference value :  4.26524e-06
 Reference value :  4.26911e-06
 Reference value :  4.27686e-06
 Reference value :  4.29235e-06
 Reference value :  4.32332e-06
 Reference value :  4.38528e-06
 Reference value :  4.50000e-06
 Reference value :  4.50001e-06
 Reference value :  4.50003e-06
 Reference value :  4.50007e-06
 Reference value :  4.50010e-06
 Reference value :  4.50010e-06
 Reference value :  4.50011e-06
 Reference value :  4.50013e-06
 Reference value :  4.50016e-06
 Reference value :  4.50023e-06
 Reference value :  4.50037e-06
 Reference value :  4.50054e-06
 Reference value :  4.50090e-06
 Reference value :  4.50139e-06
 Reference value :  4.50191e-06
 Reference value :  4.50242e-06
 Reference value :  4.50304e-06
 Reference value :  4.50369e-06
 Reference value :  4.50456e-06
 Reference value :  4.50534e-06
 Reference value :  4.50628e-06
 Reference value :  4.50743e-06
 Reference value :  4.50870e-06
 Reference value :  4.50990e-06
 Reference value :  4.51112e-06
 Reference value :  4.51229e-06
 Reference value :  4.51360e-06
 Reference value :  4.51493e-06
 Reference value :  4.51644e-06
 Reference value :  4.51946e-06
 Reference value :  4.52550e-06
 Reference value :  4.53607e-06
 Reference value :  4.55720e-06
 Reference value :  4.59948e-06
 Reference value :  4.68402e-06
 Reference value :  4.75010e-06
 Reference value :  4.75011e-06
 Reference value :  4.75013e-06
 Reference value :  4.75017e-06
 Reference value :  4.75020e-06
 Reference value :  4.75020e-06
 Reference value :  4.75020e-06
 Reference value :  4.75021e-06
 Reference value :  4.75021e-06
 Reference value :  4.75022e-06
 Reference value :  4.75025e-06
 Reference value :  4.75029e-06
 Reference value :  4.75039e-06
 Reference value :  4.75058e-06
 Reference value :  4.75091e-06
 Reference value :  4.75140e-06
 Reference value :  4.75204e-06
 Reference value :  4.75261e-06
 Reference value :  4.75330e-06
 Reference value :  4.75415e-06
 Reference value :  4.75476e-06
 Reference value :  4.75545e-06
 Reference value :  4.75615e-06
 Reference value :  4.75689e-06
 Reference value :  4.75788e-06
 Reference value :  4.75894e-06
 Reference value :  4.76007e-06
 Reference value :  4.76153e-06
 Reference value :  4.76364e-06
 Reference value :  4.76565e-06
 Reference value :  4.76931e-06
 Reference value :  4.77389e-06
 Reference value :  4.78304e-06
 Reference value :  4.80134e-06
 Reference value :  4.83794e-06
 Reference value :  4.91114e-06
 Reference value :  5.00000e-06
 Reference value :  5.00001e-06
 Reference value :  5.00003e-06
 Reference value :  5.00007e-06
 Reference value :  5.00010e-06
 Reference value :  5.00010e-06
 Reference value :  5.00011e-06
 Reference value :  5.00013e-06
 Reference value :  5.00016e-06
 Reference value :  5.00023e-06
 Reference value :  5.00036e-06
 Reference value :  5.00054e-06
 Reference value :  5.00089e-06
 Reference value :  5.00138e-06
 Reference value :  5.00189e-06
 Reference value :  5.00243e-06
 Reference value :  5.00309e-06
 Reference value :  5.00374e-06
 Reference value :  5.00451e-06
 Reference value :  5.00514e-06
 Reference value :  5.00584e-06
 Reference value :  5.00652e-06
 Reference value :  5.00720e-06
 Reference value :  5.00792e-06
 Reference value :  5.00898e-06
 Reference value :  5.00994e-06
 Reference value :  5.01179e-06
 Reference value :  5.01294e-06
 Reference value :  5.01429e-06
 Reference value :  5.01560e-06
 Reference value :  5.01715e-06
 Reference value :  5.01864e-06
 Reference value :  5.02003e-06
 Reference value :  5.02153e-06
 Reference value :  5.02288e-06
 Reference value :  5.02428e-06
 Reference value :  5.02595e-06
 Reference value :  5.02809e-06
 Reference value :  5.03040e-06
 Reference value :  5.03432e-06
 Reference value :  5.03985e-06
 Reference value :  5.04875e-06
 Reference value :  5.06282e-06
 Reference value :  5.07407e-06
 Reference value :  5.08653e-06
 Reference value :  5.09561e-06
 Reference value :  5.10600e-06
 Reference value :  5.11883e-06
 Reference value :  5.13316e-06
 Reference value :  5.16181e-06
 Reference value :  5.20121e-06
 Reference value :  5.22219e-06
 Reference value :  5.25010e-06
 Reference value :  5.25011e-06
 Reference value :  5.25013e-06
 Reference value :  5.25017e-06
 Reference value :  5.25020e-06
 Reference value :  5.25020e-06
 Reference value :  5.25020e-06
 Reference value :  5.25021e-06
 Reference value :  5.25021e-06
 Reference value :  5.25022e-06
 Reference value :  5.25025e-06
 Reference value :  5.25029e-06
 Reference value :  5.25039e-06
 Reference value :  5.25057e-06
 Reference value :  5.25090e-06
 Reference value :  5.25139e-06
 Reference value :  5.25201e-06
 Reference value :  5.25260e-06
 Reference value :  5.25328e-06
 Reference value :  5.25413e-06
 Reference value :  5.25473e-06
 Reference value :  5.25543e-06
 Reference value :  5.25631e-06
 Reference value :  5.25721e-06
 Reference value :  5.25827e-06
 Reference value :  5.26015e-06
 Reference value :  5.26208e-06
 Reference value :  5.26521e-06
 Reference value :  5.26910e-06
 Reference value :  5.27688e-06
 Reference value :  5.29243e-06
 Reference value :  5.32354e-06
 Reference value :  5.38576e-06
 Reference value :  5.50000e-06
 Reference value :  5.50001e-06
 Reference value :  5.50003e-06
 Reference value :  5.50007e-06
 Reference value :  5.50010e-06
 Reference value :  5.50010e-06
 Reference value :  5.50011e-06
 Reference value :  5.50013e-06
 Reference value :  5.50016e-06
 Reference value :  5.50023e-06
 Reference value :  5.50037e-06
 Reference value :  5.50054e-06
 Reference value :  5.50090e-06
 Reference value :  5.50140e-06
 Reference value :  5.50191e-06
 Reference value :  5.50242e-06
 Reference value :  5.50304e-06
 Reference value :  5.50370e-06
 Reference value :  5.50456e-06
 Reference value :  5.50538e-06
 Reference value :  5.50630e-06
 Reference value :  5.50761e-06
 Reference value :  5.50882e-06
 Reference value :  5.51017e-06
 Reference value :  5.51150e-06
 Reference value :  5.51282e-06
 Reference value :  5.51418e-06
 Reference value :  5.51572e-06
 Reference value :  5.51745e-06
 Reference value :  5.52056e-06
 Reference value :  5.52510e-06
 Reference value :  5.53374e-06
 Reference value :  5.54977e-06
 Reference value :  5.57947e-06
 Reference value :  5.63842e-06
 Reference value :  5.75010e-06
 Reference value :  5.75011e-06
 Reference value :  5.75013e-06
 Reference value :  5.75017e-06
 Reference value :  5.75020e-06
 Reference value :  5.75020e-06
 Reference value :  5.75020e-06
 Reference value :  5.75021e-06
 Reference value :  5.75021e-06
 Reference value :  5.75022e-06
 Reference value :  5.75025e-06
 Reference value :  5.75029e-06
 Reference value :  5.75039e-06
 Reference value :  5.75058e-06
 Reference value :  5.75091e-06
 Reference value :  5.75140e-06
 Reference value :  5.75204e-06
 Reference value :  5.75261e-06
 Reference value :  5.75330e-06
 Reference value :  5.75414e-06
 Reference value :  5.75475e-06
 Reference value :  5.75545e-06
 Reference value :  5.75614e-06
 Reference value :  5.75686e-06
 Reference value :  5.75783e-06
 Reference value :  5.75887e-06
 Reference value :  5.76005e-06
 Reference value :  5.76147e-06
 Reference value :  5.76355e-06
 Reference value :  5.76559e-06
 Reference value :  5.76916e-06
 Reference value :  5.77366e-06
 Reference value :  5.78265e-06
 Reference value :  5.80063e-06
 Reference value :  5.83659e-06
 Reference value :  5.90851e-06
 Reference value :  6.00000e-06
 Reference value :  6.00001e-06
 Reference value :  6.00003e-06
 Reference value :  6.00007e-06
 Reference value :  6.00010e-06
 Reference value :  6.00010e-06
 Reference value :  6.00011e-06
 Reference value :  6.00013e-06
 Reference value :  6.00016e-06
 Reference value :  6.00023e-06
 Reference value :  6.00036e-06
 Reference value :  6.00054e-06
 Reference value :  6.00089e-06
 Reference value :  6.00139e-06
 Reference value :  6.00190e-06
 Reference value :  6.00243e-06
 Reference value :  6.00309e-06
 Reference value :  6.00375e-06
 Reference value :  6.00452e-06
 Reference value :  6.00515e-06
 Reference value :  6.00584e-06
 Reference value :  6.00654e-06
 Reference value :  6.00726e-06
 Reference value :  6.00801e-06
 Reference value :  6.00908e-06
 Reference value :  6.01014e-06
 Reference value :  6.01205e-06
 Reference value :  6.01326e-06
 Reference value :  6.01466e-06
 Reference value :  6.01601e-06
 Reference value :  6.01754e-06
 Reference value :  6.01894e-06
 Reference value :  6.02041e-06
 Reference value :  6.02185e-06
 Reference value :  6.02325e-06
 Reference value :  6.02467e-06
 Reference value :  6.02633e-06
 Reference value :  6.02857e-06
 Reference value :  6.03099e-06
 Reference value :  6.03553e-06
 Reference value :  6.04176e-06
 Reference value :  6.05086e-06
 Reference value :  6.05952e-06
 Reference value :  6.07149e-06
 Reference value :  6.08237e-06
 Reference value :  6.09696e-06
 Reference value :  6.11153e-06
 Reference value :  6.13433e-06
 Reference value :  6.15816e-06
 Reference value :  6.20582e-06
 Reference value :  6.25010e-06
 Reference value :  6.25011e-06
 Reference value :  6.25013e-06
 Reference value :  6.25017e-06
 Reference value :  6.25020e-06
 Reference value :  6.25020e-06
 Reference value :  6.25020e-06
 Reference value :  6.25021e-06
 Reference value :  6.25021e-06
 Reference value :  6.25022e-06
 Reference value :  6.25025e-06
 Reference value :  6.25029e-06
 Reference value :  6.25039e-06
 Reference value :  6.25057e-06
 Reference value :  6.25090e-06
 Reference value :  6.25139e-06
 Reference value :  6.25202e-06
 Reference value :  6.25260e-06
 Reference value :  6.25328e-06
 Reference value :  6.25412e-06
 Reference value :  6.25472e-06
 Reference value :  6.25541e-06
 Reference value :  6.25629e-06
 Reference value :  6.25719e-06
 Reference value :  6.25825e-06
 Reference value :  6.26013e-06
 Reference value :  6.26206e-06
 Reference value :  6.26516e-06
 Reference value :  6.26904e-06
 Reference value :  6.27681e-06
 Reference value :  6.29233e-06
 Reference value :  6.32337e-06
 Reference value :  6.38547e-06
 Reference value :  6.50000e-06
 Reference value :  6.50001e-06
 Reference value :  6.50003e-06
 Reference value :  6.50007e-06
 Reference value :  6.50010e-06
 Reference value :  6.50010e-06
 Reference value :  6.50011e-06
 Reference value :  6.50013e-06
 Reference value :  6.50016e-06
 Reference value :  6.50023e-06
 Reference value :  6.50037e-06
 Reference value :  6.50054e-06
 Reference value :  6.50090e-06
 Reference value :  6.50140e-06
 Reference value :  6.50191e-06
 Reference value :  6.50242e-06
 Reference value :  6.50304e-06
 Reference value :  6.50370e-06
 Reference value :  6.50456e-06
 Reference value :  6.50535e-06
 Reference value :  6.50628e-06
 Reference value :  6.50743e-06
 Reference value :  6.50873e-06
 Reference value :  6.50988e-06
 Reference value :  6.51108e-06
 Reference value :  6.51219e-06
 Reference value :  6.51350e-06
 Reference value :  6.51482e-06
 Reference value :  6.51630e-06
 Reference value :  6.51928e-06
 Reference value :  6.52523e-06
 Reference value :  6.53559e-06
 Reference value :  6.55630e-06
 Reference value :  6.59772e-06
 Reference value :  6.68057e-06
 Reference value :  6.75010e-06
 Reference value :  6.75011e-06
 Reference value :  6.75013e-06
 Reference value :  6.75017e-06
 Reference value :  6.75020e-06
 Reference value :  6.75020e-06
 Reference value :  6.75020e-06
 Reference value :  6.75021e-06
 Reference value :  6.75021e-06
 Reference value :  6.75022e-06
 Reference value :  6.75025e-06
 Reference value :  6.75029e-06
 Reference value :  6.75039e-06
 Reference value :  6.75058e-06
 Reference value :  6.75091e-06
 Reference value :  6.75141e-06
 Reference value :  6.75204e-06
 Reference value :  6.75262e-06
 Reference value :  6.75330e-06
 Reference value :  6.75415e-06
 Reference value :  6.75476e-06
 Reference value :  6.75545e-06
 Reference value :  6.75615e-06
 Reference value :  6.75688e-06
 Reference value :  6.75786e-06
 Reference value :  6.75892e-06
 Reference value :  6.76008e-06
 Reference value :  6.76152e-06
 Reference value :  6.76363e-06
 Reference value :  6.76565e-06
 Reference value :  6.76930e-06
 Reference value :  6.77386e-06
 Reference value :  6.78298e-06
 Reference value :  6.80122e-06
 Reference value :  6.83770e-06
 Reference value :  6.91065e-06
 Reference value :  7.00000e-06
 Reference value :  7.00001e-06
 Reference value :  7.00003e-06
 Reference value :  7.00007e-06
 Reference value :  7.00010e-06
 Reference value :  7.00010e-06
 Reference value :  7.00011e-06
 Reference value :  7.00013e-06
 Reference value :  7.00016e-06
 Reference value :  7.00023e-06
 Reference value :  7.00036e-06
 Reference value :  7.00054e-06
 Reference value :  7.00089e-06
 Reference value :  7.00139e-06
 Reference value :  7.00190e-06
 Reference value :  7.00243e-06
 Reference value :  7.00309e-06
 Reference value :  7.00375e-06
 Reference value :  7.00452e-06
 Reference value :  7.00515e-06
 Reference value :  7.00584e-06
 Reference value :  7.00653e-06
 Reference value :  7.00722e-06
 Reference value :  7.00794e-06
 Reference value :  7.00900e-06
 Reference value :  7.01000e-06
 Reference value :  7.01151e-06
 Reference value :  7.01299e-06
 Reference value :  7.01436e-06
 Reference value :  7.01585e-06
 Reference value :  7.01735e-06
 Reference value :  7.01921e-06
 Reference value :  7.02035e-06
 Reference value :  7.02162e-06
 Reference value :  7.02273e-06
 Reference value :  7.02398e-06
 Reference value :  7.02539e-06
 Reference value :  7.02722e-06
 Reference value :  7.02936e-06
 Reference value :  7.03268e-06
 Reference value :  7.03760e-06
 Reference value :  7.04295e-06
 Reference value :  7.05005e-06
 Reference value :  7.06248e-06
 Reference value :  7.08523e-06
 Reference value :  7.11416e-06
 Reference value :  7.14473e-06
 Reference value :  7.19253e-06
 Reference value :  7.25010e-06
 Reference value :  7.25011e-06
 Reference value :  7.25013e-06
 Reference value :  7.25017e-06
 Reference value :  7.25020e-06
 Reference value :  7.25020e-06
 Reference value :  7.25020e-06
 Reference value :  7.25021e-06
 Reference value :  7.25021e-06
 Reference value :  7.25022e-06
 Reference value :  7.25025e-06
 Reference value :  7.25029e-06
 Reference value :  7.25039e-06
 Reference value :  7.25057e-06
 Reference value :  7.25091e-06
 Reference value :  7.25140e-06
 Reference value :  7.25203e-06
 Reference value :  7.25261e-06
 Reference value :  7.25329e-06
 Reference value :  7.25413e-06
 Reference value :  7.25472e-06
 Reference value :  7.25541e-06
 Reference value :  7.25626e-06
 Reference value :  7.25720e-06
 Reference value :  7.25821e-06
 Reference value :  7.26024e-06
 Reference value :  7.26213e-06
 Reference value :  7.26533e-06
 Reference value :  7.26917e-06
 Reference value :  7.27685e-06
 Reference value :  7.29221e-06
 Reference value :  7.32293e-06
 Reference value :  7.38437e-06
 Reference value :  7.50000e-06
 Reference value :  7.50001e-06
 Reference value :  7.50003e-06
 Reference value :  7.50007e-06
 Reference value :  7.50010e-06
 Reference value :  7.50010e-06
 Reference value :  7.50011e-06
 Reference value :  7.50013e-06
 Reference value :  7.50016e-06
 Reference value :  7.50023e-06
 Reference value :  7.50037e-06
 Reference value :  7.50054e-06
 Reference value :  7.50090e-06
 Reference value :  7.50142e-06
 Reference value :  7.50194e-06
 Reference value :  7.50248e-06
 Reference value :  7.50310e-06
 Reference value :  7.50380e-06
 Reference value :  7.50458e-06
 Reference value :  7.50547e-06
 Reference value :  7.50637e-06
 Reference value :  7.50760e-06
 Reference value :  7.50894e-06
 Reference value :  7.51021e-06
 Reference value :  7.51151e-06
 Reference value :  7.51270e-06
 Reference value :  7.51404e-06
 Reference value :  7.51537e-06
 Reference value :  7.51692e-06
 Reference value :  7.52002e-06
 Reference value :  7.52513e-06
 Reference value :  7.53536e-06
 Reference value :  7.55580e-06
 Reference value :  7.59669e-06
 Reference value :  7.67846e-06
 Reference value :  7.75010e-06
 Reference value :  7.75011e-06
 Reference value :  7.75013e-06
 Reference value :  7.75017e-06
 Reference value :  7.75020e-06
 Reference value :  7.75020e-06
 Reference value :  7.75020e-06
 Reference value :  7.75021e-06
 Reference value :  7.75021e-06
 Reference value :  7.75022e-06
 Reference value :  7.75025e-06
 Reference value :  7.75029e-06
 Reference value :  7.75039e-06
 Reference value :  7.75058e-06
 Reference value :  7.75092e-06
 Reference value :  7.75141e-06
 Reference value :  7.75198e-06
 Reference value :  7.75258e-06
 Reference value :  7.75322e-06
 Reference value :  7.75406e-06
 Reference value :  7.75468e-06
 Reference value :  7.75539e-06
 Reference value :  7.75605e-06
 Reference value :  7.75677e-06
 Reference value :  7.75766e-06
 Reference value :  7.75866e-06
 Reference value :  7.75969e-06
 Reference value :  7.76117e-06
 Reference value :  7.76284e-06
 Reference value :  7.76512e-06
 Reference value :  7.76796e-06
 Reference value :  7.77220e-06
 Reference value :  7.78068e-06
 Reference value :  7.79765e-06
 Reference value :  7.83159e-06
 Reference value :  7.85700e-06
 Reference value :  7.87071e-06
 Reference value :  7.88675e-06
 Reference value :  7.90322e-06
 Reference value :  7.92001e-06
 Reference value :  7.94133e-06
 Reference value :  7.96467e-06
 Reference value :  7.99437e-06
 Reference value :  8.00000e-06
 Reference value :  8.00001e-06
 Reference value :  8.00003e-06
 Reference value :  8.00007e-06
 Reference value :  8.00010e-06
 Reference value :  8.00010e-06
 Reference value :  8.00011e-06
 Reference value :  8.00013e-06
 Reference value :  8.00016e-06
 Reference value :  8.00023e-06
 Reference value :  8.00037e-06
 Reference value :  8.00054e-06
 Reference value :  8.00090e-06
 Reference value :  8.00142e-06
 Reference value :  8.00194e-06
 Reference value :  8.00251e-06
 Reference value :  8.00316e-06
 Reference value :  8.00387e-06
 Reference value :  8.00466e-06
 Reference value :  8.00536e-06
 Reference value :  8.00609e-06
 Reference value :  8.00684e-06
 Reference value :  8.00761e-06
 Reference value :  8.00842e-06
 Reference value :  8.00952e-06
 Reference value :  8.01089e-06
 Reference value :  8.01298e-06
 Reference value :  8.01567e-06
 Reference value :  8.01767e-06
 Reference value :  8.01987e-06
 Reference value :  8.02203e-06
 Reference value :  8.02451e-06
 Reference value :  8.02836e-06
 Reference value :  8.03345e-06
 Reference value :  8.04219e-06
 Reference value :  8.05630e-06
 Reference value :  8.08019e-06
 Reference value :  8.12238e-06
 Reference value :  8.19468e-06
 Reference value :  8.25010e-06
 Reference value :  8.25011e-06
 Reference value :  8.25013e-06
 Reference value :  8.25017e-06
 Reference value :  8.25020e-06
 Reference value :  8.25020e-06
 Reference value :  8.25020e-06
 Reference value :  8.25021e-06
 Reference value :  8.25021e-06
 Reference value :  8.25022e-06
 Reference value :  8.25025e-06
 Reference value :  8.25029e-06
 Reference value :  8.25039e-06
 Reference value :  8.25058e-06
 Reference value :  8.25096e-06
 Reference value :  8.25143e-06
 Reference value :  8.25198e-06
 Reference value :  8.25258e-06
 Reference value :  8.25322e-06
 Reference value :  8.25404e-06
 Reference value :  8.25495e-06
 Reference value :  8.25612e-06
 Reference value :  8.25752e-06
 Reference value :  8.25884e-06
 Reference value :  8.26110e-06
 Reference value :  8.26350e-06
 Reference value :  8.26726e-06
 Reference value :  8.27286e-06
 Reference value :  8.28406e-06
 Reference value :  8.30646e-06
 Reference value :  8.35126e-06
 Reference value :  8.44085e-06
 Reference value :  8.50000e-06
 Reference value :  8.50001e-06
 Reference value :  8.50003e-06
 Reference value :  8.50007e-06
 Reference value :  8.50010e-06
 Reference value :  8.50010e-06
 Reference value :  8.50011e-06
 Reference value :  8.50013e-06
 Reference value :  8.50016e-06
 Reference value :  8.50023e-06
 Reference value :  8.50036e-06
 Reference value :  8.50062e-06
 Reference value :  8.50102e-06
 Reference value :  8.50173e-06
 Reference value :  8.50238e-06
 Reference value :  8.50294e-06
 Reference value :  8.50362e-06
 Reference value :  8.50426e-06
 Reference value :  8.50502e-06
 Reference value :  8.50586e-06
 Reference value :  8.50680e-06
 Reference value :  8.50827e-06
 Reference value :  8.50963e-06
 Reference value :  8.51111e-06
 Reference value :  8.51253e-06
 Reference value :  8.51419e-06
 Reference value :  8.51634e-06
 Reference value :  8.51873e-06
 Reference value :  8.52351e-06
 Reference value :  8.52872e-06
 Reference value :  8.53244e-06
 Reference value :  8.53555e-06
 Reference value :  8.53828e-06
 Reference value :  8.54091e-06
 Reference value :  8.54301e-06
 Reference value :  8.54503e-06
 Reference value :  8.54696e-06
 Reference value :  8.54908e-06
 Reference value :  8.55170e-06
 Reference value :  8.55444e-06
 Reference value :  8.55734e-06
 Reference value :  8.56245e-06
 Reference value :  8.56706e-06
 Reference value :  8.57628e-06
 Reference value :  8.59101e-06
 Reference value :  8.61549e-06
 Reference value :  8.63162e-06
 Reference value :  8.65015e-06
 Reference value :  8.67004e-06
 Reference value :  8.70982e-06
 Reference value :  8.74710e-06
 Reference value :  8.75010e-06
 Reference value :  8.75011e-06
 Reference value :  8.75013e-06
 Reference value :  8.75017e-06
 Reference value :  8.75020e-06
 Reference value :  8.75020e-06
 Reference value :  8.75020e-06
 Reference value :  8.75021e-06
 Reference value :  8.75021e-06
 Reference value :  8.75022e-06
 Reference value :  8.75025e-06
 Reference value :  8.75029e-06
 Reference value :  8.75039e-06
 Reference value :  8.75058e-06
 Reference value :  8.75096e-06
 Reference value :  8.75143e-06
 Reference value :  8.75199e-06
 Reference value :  8.75258e-06
 Reference value :  8.75323e-06
 Reference value :  8.75405e-06
 Reference value :  8.75469e-06
 Reference value :  8.75543e-06
 Reference value :  8.75618e-06
 Reference value :  8.75698e-06
 Reference value :  8.75812e-06
 Reference value :  8.75960e-06
 Reference value :  8.76163e-06
 Reference value :  8.76426e-06
 Reference value :  8.76819e-06
 Reference value :  8.77570e-06
 Reference value :  8.79073e-06
 Reference value :  8.82039e-06
 Reference value :  8.87939e-06
 Reference value :  8.98962e-06
 Reference value :  9.00000e-06
 Reference value :  9.00001e-06
 Reference value :  9.00003e-06
 Reference value :  9.00007e-06
 Reference value :  9.00010e-06
 Reference value :  9.00010e-06
 Reference value :  9.00011e-06
 Reference value :  9.00013e-06
 Reference value :  9.00016e-06
 Reference value :  9.00023e-06
 Reference value :  9.00036e-06
 Reference value :  9.00055e-06
 Reference value :  9.00092e-06
 Reference value :  9.00145e-06
 Reference value :  9.00198e-06
 Reference value :  9.00255e-06
 Reference value :  9.00322e-06
 Reference value :  9.00397e-06
 Reference value :  9.00467e-06
 Reference value :  9.00550e-06
 Reference value :  9.00638e-06
 Reference value :  9.00744e-06
 Reference value :  9.00896e-06
 Reference value :  9.01080e-06
 Reference value :  9.01260e-06
 Reference value :  9.01460e-06
 Reference value :  9.01631e-06
 Reference value :  9.01810e-06
 Reference value :  9.02033e-06
 Reference value :  9.02275e-06
 Reference value :  9.02711e-06
 Reference value :  9.03379e-06
 Reference value :  9.04499e-06
 Reference value :  9.06738e-06
 Reference value :  9.11218e-06
 Reference value :  9.19814e-06
 Reference value :  9.25010e-06
 Reference value :  9.25011e-06
 Reference value :  9.25013e-06
 Reference value :  9.25017e-06
 Reference value :  9.25020e-06
 Reference value :  9.25020e-06
 Reference value :  9.25020e-06
 Reference value :  9.25021e-06
 Reference value :  9.25021e-06
 Reference value :  9.25022e-06
 Reference value :  9.25025e-06
 Reference value :  9.25029e-06
 Reference value :  9.25039e-06
 Reference value :  9.25057e-06
 Reference value :  9.25094e-06
 Reference value :  9.25142e-06
 Reference value :  9.25198e-06
 Reference value :  9.25259e-06
 Reference value :  9.25324e-06
 Reference value :  9.25411e-06
 Reference value :  9.25473e-06
 Reference value :  9.25545e-06
 Reference value :  9.25612e-06
 Reference value :  9.25686e-06
 Reference value :  9.25779e-06
 Reference value :  9.25883e-06
 Reference value :  9.26092e-06
 Reference value :  9.26308e-06
 Reference value :  9.26682e-06
 Reference value :  9.27155e-06
 Reference value :  9.28101e-06
 Reference value :  9.29993e-06
 Reference value :  9.33777e-06
 Reference value :  9.41345e-06
 Reference value :  9.50000e-06
 Reference value :  9.50001e-06
 Reference value :  9.50003e-06
 Reference value :  9.50007e-06
 Reference value :  9.50010e-06
 Reference value :  9.50010e-06
 Reference value :  9.50011e-06
 Reference value :  9.50013e-06
 Reference value :  9.50016e-06
 Reference value :  9.50023e-06
 Reference value :  9.50036e-06
 Reference value :  9.50055e-06
 Reference value :  9.50092e-06
 Reference value :  9.50145e-06
 Reference value :  9.50198e-06
 Reference value :  9.50255e-06
 Reference value :  9.50322e-06
 Reference value :  9.50397e-06
 Reference value :  9.50472e-06
 Reference value :  9.50541e-06
 Reference value :  9.50613e-06
 Reference value :  9.50694e-06
 Reference value :  9.50770e-06
 Reference value :  9.50853e-06
 Reference value :  9.50971e-06
 Reference value :  9.51103e-06
 Reference value :  9.51330e-06
 Reference value :  9.51572e-06
 Reference value :  9.51764e-06
 Reference value :  9.51939e-06
 Reference value :  9.52065e-06
 Reference value :  9.52203e-06
 Reference value :  9.52360e-06
 Reference value :  9.52513e-06
 Reference value :  9.52697e-06
 Reference value :  9.52971e-06
 Reference value :  9.53253e-06
 Reference value :  9.53818e-06
 Reference value :  9.54721e-06
 Reference value :  9.56169e-06
 Reference value :  9.58161e-06
 Reference value :  9.61323e-06
 Reference value :  9.65398e-06
 Reference value :  9.69164e-06
 Reference value :  9.71281e-06
 Reference value :  9.72419e-06
 Reference value :  9.73285e-06
 Reference value :  9.74130e-06
 Reference value :  9.75010e-06
 Reference value :  9.75011e-06
 Reference value :  9.75013e-06
 Reference value :  9.75017e-06
 Reference value :  9.75020e-06
 Reference value :  9.75020e-06
 Reference value :  9.75020e-06
 Reference value :  9.75021e-06
 Reference value :  9.75021e-06
 Reference value :  9.75022e-06
 Reference value :  9.75025e-06
 Reference value :  9.75029e-06
 Reference value :  9.75039e-06
 Reference value :  9.75057e-06
 Reference value :  9.75090e-06
 Reference value :  9.75140e-06
 Reference value :  9.75203e-06
 Reference value :  9.75261e-06
 Reference value :  9.75328e-06
 Reference value :  9.75411e-06
 Reference value :  9.75470e-06
 Reference value :  9.75538e-06
 Reference value :  9.75624e-06
 Reference value :  9.75718e-06
 Reference value :  9.75821e-06
 Reference value :  9.76028e-06
 Reference value :  9.76216e-06
 Reference value :  9.76536e-06
 Reference value :  9.76921e-06
 Reference value :  9.77689e-06
 Reference value :  9.79227e-06
 Reference value :  9.82302e-06
 Reference value :  9.88453e-06
 Reference value :  1.00000e-05
 Reference value :  1.00000e-05
 Reference value :  1.00000e-05
 Reference value :  1.00001e-05
 Reference value :  1.00001e-05
 Reference value :  1.00001e-05
 Reference value :  1.00001e-05
 Reference value :  1.00001e-05
 Reference value :  1.00002e-05
 Reference value :  1.00002e-05
 Reference value :  1.00004e-05
 Reference value :  1.00005e-05
 Reference value :  1.00009e-05
 Reference value :  1.00014e-05
 Reference value :  1.00019e-05
 Reference value :  1.00024e-05
 Reference value :  1.00030e-05
 Reference value :  1.00037e-05
 Reference value :  1.00046e-05
 Reference value :  1.00054e-05
 Reference value :  1.00063e-05
 Reference value :  1.00076e-05
 Reference value :  1.00090e-05
 Reference value :  1.00104e-05
 Reference value :  1.00118e-05
 Reference value :  1.00131e-05
 Reference value :  1.00146e-05
 Reference value :  1.00160e-05
 Reference value :  1.00176e-05
 Reference value :  1.00209e-05
 Reference value :  1.00264e-05
 Reference value :  1.00372e-05
 Reference value :  1.00588e-05
 Reference value :  1.01021e-05
 Reference value :  1.01886e-05
 Reference value :  1.02501e-05
 Reference value :  1.02501e-05
 Reference value :  1.02501e-05
 Reference value :  1.02502e-05
 Reference value :  1.02502e-05
 Reference value :  1.02502e-05
 Reference value :  1.02502e-05
 Reference value :  1.02502e-05
 Reference value :  1.02502e-05
 Reference value :  1.02502e-05
 Reference value :  1.02502e-05
 Reference value :  1.02503e-05
 Reference value :  1.02504e-05
 Reference value :  1.02506e-05
 Reference value :  1.02509e-05
 Reference value :  1.02514e-05
 Reference value :  1.02520e-05
 Reference value :  1.02526e-05
 Reference value :  1.02532e-05
 Reference value :  1.02541e-05
 Reference value :  1.02547e-05
 Reference value :  1.02554e-05
 Reference value :  1.02561e-05
 Reference value :  1.02568e-05
 Reference value :  1.02577e-05
 Reference value :  1.02587e-05
 Reference value :  1.02597e-05
 Reference value :  1.02612e-05
 Reference value :  1.02629e-05
 Reference value :  1.02651e-05
 Reference value :  1.02680e-05
 Reference value :  1.02722e-05
 Reference value :  1.02807e-05
 Reference value :  1.02964e-05
 Reference value :  1.03277e-05
 Reference value :  1.03905e-05
 Reference value :  1.05000e-05
 Reference value :  1.05000e-05
 Reference value :  1.05000e-05
 Reference value :  1.05001e-05
 Reference value :  1.05001e-05
 Reference value :  1.05001e-05
 Reference value :  1.05001e-05
 Reference value :  1.05001e-05
 Reference value :  1.05002e-05
 Reference value :  1.05002e-05
 Reference value :  1.05004e-05
 Reference value :  1.05005e-05
 Reference value :  1.05009e-05
 Reference value :  1.05014e-05
 Reference value :  1.05019e-05
 Reference value :  1.05024e-05
 Reference value :  1.05031e-05
 Reference value :  1.05038e-05
 Reference value :  1.05045e-05
 Reference value :  1.05052e-05
 Reference value :  1.05058e-05
 Reference value :  1.05065e-05
 Reference value :  1.05072e-05
 Reference value :  1.05080e-05
 Reference value :  1.05089e-05
 Reference value :  1.05099e-05
 Reference value :  1.05115e-05
 Reference value :  1.05138e-05
 Reference value :  1.05153e-05
 Reference value :  1.05171e-05
 Reference value :  1.05187e-05
 Reference value :  1.05200e-05
 Reference value :  1.05211e-05
 Reference value :  1.05222e-05
 Reference value :  1.05235e-05
 Reference value :  1.05250e-05
 Reference value :  1.05265e-05
 Reference value :  1.05290e-05
 Reference value :  1.05321e-05
 Reference value :  1.05381e-05
 Reference value :  1.05492e-05
 Reference value :  1.05652e-05
 Reference value :  1.05805e-05
 Reference value :  1.05947e-05
 Reference value :  1.06063e-05
 Reference value :  1.06112e-05
 Reference value :  1.06162e-05
 Reference value :  1.06215e-05
 Reference value :  1.06306e-05
 Reference value :  1.06420e-05
 Reference value :  1.06601e-05
 Reference value :  1.06863e-05
 Reference value :  1.07251e-05
 Reference value :  1.07501e-05
 Reference value :  1.07501e-05
 Reference value :  1.07501e-05
 Reference value :  1.07502e-05
 Reference value :  1.07502e-05
 Reference value :  1.07502e-05
 Reference value :  1.07502e-05
 Reference value :  1.07502e-05
 Reference value :  1.07502e-05
 Reference value :  1.07502e-05
 Reference value :  1.07502e-05
 Reference value :  1.07503e-05
 Reference value :  1.07504e-05
 Reference value :  1.07506e-05
 Reference value :  1.07509e-05
 Reference value :  1.07514e-05
 Reference value :  1.07520e-05
 Reference value :  1.07526e-05
 Reference value :  1.07532e-05
 Reference value :  1.07541e-05
 Reference value :  1.07547e-05
 Reference value :  1.07554e-05
 Reference value :  1.07562e-05
 Reference value :  1.07570e-05
 Reference value :  1.07581e-05
 Reference value :  1.07597e-05
 Reference value :  1.07617e-05
 Reference value :  1.07645e-05
 Reference value :  1.07684e-05
 Reference value :  1.07762e-05
 Reference value :  1.07918e-05
 Reference value :  1.08222e-05
 Reference value :  1.08830e-05
 Reference value :  1.09394e-05
 Reference value :  1.10000e-05
 Reference value :  1.10000e-05
 Reference value :  1.10000e-05
 Reference value :  1.10001e-05
 Reference value :  1.10001e-05
 Reference value :  1.10001e-05
 Reference value :  1.10001e-05
 Reference value :  1.10001e-05
 Reference value :  1.10002e-05
 Reference value :  1.10002e-05
 Reference value :  1.10004e-05
 Reference value :  1.10005e-05
 Reference value :  1.10009e-05
 Reference value :  1.10014e-05
 Reference value :  1.10019e-05
 Reference value :  1.10024e-05
 Reference value :  1.10031e-05
 Reference value :  1.10038e-05
 Reference value :  1.10045e-05
 Reference value :  1.10054e-05
 Reference value :  1.10062e-05
 Reference value :  1.10075e-05
 Reference value :  1.10088e-05
 Reference value :  1.10101e-05
 Reference value :  1.10114e-05
 Reference value :  1.10128e-05
 Reference value :  1.10144e-05
 Reference value :  1.10162e-05
 Reference value :  1.10179e-05
 Reference value :  1.10214e-05
 Reference value :  1.10283e-05
 Reference value :  1.10394e-05
 Reference value :  1.10615e-05
 Reference value :  1.11057e-05
 Reference value :  1.11940e-05
 Reference value :  1.12501e-05
 Reference value :  1.12501e-05
 Reference value :  1.12501e-05
 Reference value :  1.12502e-05
 Reference value :  1.12502e-05
 Reference value :  1.12502e-05
 Reference value :  1.12502e-05
 Reference value :  1.12502e-05
 Reference value :  1.12502e-05
 Reference value :  1.12502e-05
 Reference value :  1.12502e-05
 Reference value :  1.12503e-05
 Reference value :  1.12504e-05
 Reference value :  1.12506e-05
 Reference value :  1.12509e-05
 Reference value :  1.12514e-05
 Reference value :  1.12520e-05
 Reference value :  1.12526e-05
 Reference value :  1.12532e-05
 Reference value :  1.12541e-05
 Reference value :  1.12547e-05
 Reference value :  1.12554e-05
 Reference value :  1.12560e-05
 Reference value :  1.12568e-05
 Reference value :  1.12577e-05
 Reference value :  1.12587e-05
 Reference value :  1.12606e-05
 Reference value :  1.12627e-05
 Reference value :  1.12663e-05
 Reference value :  1.12706e-05
 Reference value :  1.12794e-05
 Reference value :  1.12968e-05
 Reference value :  1.13316e-05
 Reference value :  1.14014e-05
 Reference value :  1.15000e-05
 Reference value :  1.15000e-05
 Reference value :  1.15000e-05
 Reference value :  1.15001e-05
 Reference value :  1.15001e-05
 Reference value :  1.15001e-05
 Reference value :  1.15001e-05
 Reference value :  1.15001e-05
 Reference value :  1.15002e-05
 Reference value :  1.15002e-05
 Reference value :  1.15004e-05
 Reference value :  1.15005e-05
 Reference value :  1.15009e-05
 Reference value :  1.15014e-05
 Reference value :  1.15019e-05
 Reference value :  1.15024e-05
 Reference value :  1.15031e-05
 Reference value :  1.15038e-05
 Reference value :  1.15045e-05
 Reference value :  1.15052e-05
 Reference value :  1.15059e-05
 Reference value :  1.15068e-05
 Reference value :  1.15075e-05
 Reference value :  1.15083e-05
 Reference value :  1.15095e-05
 Reference value :  1.15106e-05
 Reference value :  1.15126e-05
 Reference value :  1.15150e-05
 Reference value :  1.15168e-05
 Reference value :  1.15188e-05
 Reference value :  1.15202e-05
 Reference value :  1.15218e-05
 Reference value :  1.15231e-05
 Reference value :  1.15246e-05
 Reference value :  1.15263e-05
 Reference value :  1.15286e-05
 Reference value :  1.15311e-05
 Reference value :  1.15358e-05
 Reference value :  1.15421e-05
 Reference value :  1.15524e-05
 Reference value :  1.15657e-05
 Reference value :  1.15808e-05
 Reference value :  1.15945e-05
 Reference value :  1.16048e-05
 Reference value :  1.16144e-05
 Reference value :  1.16246e-05
 Reference value :  1.16329e-05
 Reference value :  1.16419e-05
 Reference value :  1.16525e-05
 Reference value :  1.16683e-05
 Reference value :  1.16892e-05
 Reference value :  1.17220e-05
 Reference value :  1.17501e-05
 Reference value :  1.17501e-05
 Reference value :  1.17501e-05
 Reference value :  1.17502e-05
 Reference value :  1.17502e-05
 Reference value :  1.17502e-05
 Reference value :  1.17502e-05
 Reference value :  1.17502e-05
 Reference value :  1.17502e-05
 Reference value :  1.17502e-05
 Reference value :  1.17502e-05
 Reference value :  1.17503e-05
 Reference value :  1.17504e-05
 Reference value :  1.17506e-05
 Reference value :  1.17509e-05
 Reference value :  1.17514e-05
 Reference value :  1.17520e-05
 Reference value :  1.17526e-05
 Reference value :  1.17533e-05
 Reference value :  1.17541e-05
 Reference value :  1.17547e-05
 Reference value :  1.17554e-05
 Reference value :  1.17562e-05
 Reference value :  1.17572e-05
 Reference value :  1.17582e-05
 Reference value :  1.17602e-05
 Reference value :  1.17621e-05
 Reference value :  1.17652e-05
 Reference value :  1.17691e-05
 Reference value :  1.17767e-05
 Reference value :  1.17920e-05
 Reference value :  1.18134e-05
 Reference value :  1.18426e-05
 Reference value :  1.18701e-05
 Reference value :  1.18906e-05
 Reference value :  1.19068e-05
 Reference value :  1.19222e-05
 Reference value :  1.19366e-05
 Reference value :  1.19595e-05
 Reference value :  1.19931e-05
 Reference value :  1.20000e-05
 Reference value :  1.20000e-05
 Reference value :  1.20000e-05
 Reference value :  1.20001e-05
 Reference value :  1.20001e-05
 Reference value :  1.20001e-05
 Reference value :  1.20001e-05
 Reference value :  1.20001e-05
 Reference value :  1.20002e-05
 Reference value :  1.20002e-05
 Reference value :  1.20004e-05
 Reference value :  1.20005e-05
 Reference value :  1.20009e-05
 Reference value :  1.20014e-05
 Reference value :  1.20019e-05
 Reference value :  1.20024e-05
 Reference value :  1.20031e-05
 Reference value :  1.20038e-05
 Reference value :  1.20045e-05
 Reference value :  1.20053e-05
 Reference value :  1.20062e-05
 Reference value :  1.20073e-05
 Reference value :  1.20087e-05
 Reference value :  1.20098e-05
 Reference value :  1.20110e-05
 Reference value :  1.20125e-05
 Reference value :  1.20141e-05
 Reference value :  1.20157e-05
 Reference value :  1.20176e-05
 Reference value :  1.20208e-05
 Reference value :  1.20256e-05
 Reference value :  1.20344e-05
 Reference value :  1.20505e-05
 Reference value :  1.20801e-05
 Reference value :  1.21378e-05
 Reference value :  1.22501e-05
 Reference value :  1.22501e-05
 Reference value :  1.22501e-05
 Reference value :  1.22502e-05
 Reference value :  1.22502e-05
 Reference value :  1.22502e-05
 Reference value :  1.22502e-05
 Reference value :  1.22502e-05
 Reference value :  1.22502e-05
 Reference value :  1.22502e-05
 Reference value :  1.22502e-05
 Reference value :  1.22503e-05
 Reference value :  1.22504e-05
 Reference value :  1.22506e-05
 Reference value :  1.22509e-05
 Reference value :  1.22514e-05
 Reference value :  1.22520e-05
 Reference value :  1.22526e-05
 Reference value :  1.22532e-05
 Reference value :  1.22541e-05
 Reference value :  1.22547e-05
 Reference value :  1.22554e-05
 Reference value :  1.22560e-05
 Reference value :  1.22568e-05
 Reference value :  1.22577e-05
 Reference value :  1.22587e-05
 Reference value :  1.22606e-05
 Reference value :  1.22627e-05
 Reference value :  1.22663e-05
 Reference value :  1.22706e-05
 Reference value :  1.22793e-05
 Reference value :  1.22967e-05
 Reference value :  1.23315e-05
 Reference value :  1.24010e-05
 Reference value :  1.25000e-05
 Reference value :  1.25000e-05
 Reference value :  1.25000e-05
 Reference value :  1.25001e-05
 Reference value :  1.25001e-05
 Reference value :  1.25001e-05
 Reference value :  1.25001e-05
 Reference value :  1.25001e-05
 Reference value :  1.25002e-05
 Reference value :  1.25002e-05
 Reference value :  1.25004e-05
 Reference value :  1.25005e-05
 Reference value :  1.25009e-05
 Reference value :  1.25014e-05
 Reference value :  1.25019e-05
 Reference value :  1.25024e-05
 Reference value :  1.25031e-05
 Reference value :  1.25038e-05
 Reference value :  1.25045e-05
 Reference value :  1.25052e-05
 Reference value :  1.25059e-05
 Reference value :  1.25068e-05
 Reference value :  1.25075e-05
 Reference value :  1.25084e-05
 Reference value :  1.25094e-05
 Reference value :  1.25106e-05
 Reference value :  1.25126e-05
 Reference value :  1.25150e-05
 Reference value :  1.25169e-05
 Reference value :  1.25189e-05
 Reference value :  1.25206e-05
 Reference value :  1.25224e-05
 Reference value :  1.25241e-05
 Reference value :  1.25262e-05
 Reference value :  1.25281e-05
 Reference value :  1.25310e-05
 Reference value :  1.25349e-05
 Reference value :  1.25387e-05
 Reference value :  1.25431e-05
 Reference value :  1.25487e-05
 Reference value :  1.25529e-05
 Reference value :  1.25564e-05
 Reference value :  1.25603e-05
 Reference value :  1.25657e-05
 Reference value :  1.25712e-05
 Reference value :  1.25800e-05
 Reference value :  1.25870e-05
 Reference value :  1.25946e-05
 Reference value :  1.26037e-05
 Reference value :  1.26173e-05
 Reference value :  1.26395e-05
 Reference value :  1.26724e-05
 Reference value :  1.27215e-05
 Reference value :  1.27501e-05
 Reference value :  1.27501e-05
 Reference value :  1.27501e-05
 Reference value :  1.27502e-05
 Reference value :  1.27502e-05
 Reference value :  1.27502e-05
 Reference value :  1.27502e-05
 Reference value :  1.27502e-05
 Reference value :  1.27502e-05
 Reference value :  1.27502e-05
 Reference value :  1.27502e-05
 Reference value :  1.27503e-05
 Reference value :  1.27504e-05
 Reference value :  1.27506e-05
 Reference value :  1.27509e-05
 Reference value :  1.27514e-05
 Reference value :  1.27520e-05
 Reference value :  1.27526e-05
 Reference value :  1.27533e-05
 Reference value :  1.27541e-05
 Reference value :  1.27547e-05
 Reference value :  1.27554e-05
 Reference value :  1.27562e-05
 Reference value :  1.27573e-05
 Reference value :  1.27582e-05
 Reference value :  1.27602e-05
 Reference value :  1.27621e-05
 Reference value :  1.27652e-05
 Reference value :  1.27691e-05
 Reference value :  1.27769e-05
 Reference value :  1.27923e-05
 Reference value :  1.28233e-05
 Reference value :  1.28853e-05
 Reference value :  1.30000e-05
 Reference value :  1.30000e-05
 Reference value :  1.30000e-05
 Reference value :  1.30001e-05
 Reference value :  1.30001e-05
 Reference value :  1.30001e-05
 Reference value :  1.30001e-05
 Reference value :  1.30001e-05
 Reference value :  1.30002e-05
 Reference value :  1.30002e-05
 Reference value :  1.30004e-05
 Reference value :  1.30005e-05
 Reference value :  1.30009e-05
 Reference value :  1.30014e-05
 Reference value :  1.30019e-05
 Reference value :  1.30024e-05
 Reference value :  1.30030e-05
 Reference value :  1.30037e-05
 Reference value :  1.30046e-05
 Reference value :  1.30053e-05
 Reference value :  1.30063e-05
 Reference value :  1.30074e-05
 Reference value :  1.30087e-05
 Reference value :  1.30099e-05
 Reference value :  1.30111e-05
 Reference value :  1.30123e-05
 Reference value :  1.30136e-05
 Reference value :  1.30149e-05
 Reference value :  1.30164e-05
 Reference value :  1.30195e-05
 Reference value :  1.30255e-05
 Reference value :  1.30361e-05
 Reference value :  1.30572e-05
 Reference value :  1.30995e-05
 Reference value :  1.31841e-05
 Reference value :  1.32501e-05
 Reference value :  1.32501e-05
 Reference value :  1.32501e-05
 Reference value :  1.32502e-05
 Reference value :  1.32502e-05
 Reference value :  1.32502e-05
 Reference value :  1.32502e-05
 Reference value :  1.32502e-05
 Reference value :  1.32502e-05
 Reference value :  1.32502e-05
 Reference value :  1.32502e-05
 Reference value :  1.32503e-05
 Reference value :  1.32504e-05
 Reference value :  1.32506e-05
 Reference value :  1.32509e-05
 Reference value :  1.32514e-05
 Reference value :  1.32520e-05
 Reference value :  1.32526e-05
 Reference value :  1.32533e-05
 Reference value :  1.32541e-05
 Reference value :  1.32548e-05
 Reference value :  1.32555e-05
 Reference value :  1.32562e-05
 Reference value :  1.32569e-05
 Reference value :  1.32579e-05
 Reference value :  1.32589e-05
 Reference value :  1.32601e-05
 Reference value :  1.32615e-05
 Reference value :  1.32636e-05
 Reference value :  1.32656e-05
 Reference value :  1.32693e-05
 Reference value :  1.32738e-05
 Reference value :  1.32830e-05
 Reference value :  1.33012e-05
 Reference value :  1.33378e-05
 Reference value :  1.34108e-05
 Reference value :  1.35000e-05
 Reference value :  1.35000e-05
 Reference value :  1.35000e-05
 Reference value :  1.35001e-05
 Reference value :  1.35001e-05
 Reference value :  1.35001e-05
 Reference value :  1.35001e-05
 Reference value :  1.35001e-05
 Reference value :  1.35002e-05
 Reference value :  1.35002e-05
 Reference value :  1.35004e-05
 Reference value :  1.35005e-05
 Reference value :  1.35009e-05
 Reference value :  1.35014e-05
 Reference value :  1.35019e-05
 Reference value :  1.35024e-05
 Reference value :  1.35031e-05
 Reference value :  1.35037e-05
 Reference value :  1.35045e-05
 Reference value :  1.35051e-05
 Reference value :  1.35058e-05
 Reference value :  1.35065e-05
 Reference value :  1.35072e-05
 Reference value :  1.35079e-05
 Reference value :  1.35090e-05
 Reference value :  1.35099e-05
 Reference value :  1.35118e-05
 Reference value :  1.35129e-05
 Reference value :  1.35143e-05
 Reference value :  1.35156e-05
 Reference value :  1.35171e-05
 Reference value :  1.35186e-05
 Reference value :  1.35200e-05
 Reference value :  1.35215e-05
 Reference value :  1.35228e-05
 Reference value :  1.35242e-05
 Reference value :  1.35259e-05
 Reference value :  1.35280e-05
 Reference value :  1.35303e-05
 Reference value :  1.35341e-05
 Reference value :  1.35395e-05
 Reference value :  1.35456e-05
 Reference value :  1.35515e-05
 Reference value :  1.35581e-05
 Reference value :  1.35647e-05
 Reference value :  1.35695e-05
 Reference value :  1.35740e-05
 Reference value :  1.35811e-05
 Reference value :  1.35881e-05
 Reference value :  1.35951e-05
 Reference value :  1.36092e-05
 Reference value :  1.36242e-05
 Reference value :  1.36399e-05
 Reference value :  1.36487e-05
 Reference value :  1.36588e-05
 Reference value :  1.36708e-05
 Reference value :  1.36857e-05
 Reference value :  1.37000e-05
 Reference value :  1.37146e-05
 Reference value :  1.37284e-05
 Reference value :  1.37501e-05
 Reference value :  1.37501e-05
 Reference value :  1.37501e-05
 Reference value :  1.37502e-05
 Reference value :  1.37502e-05
 Reference value :  1.37502e-05
 Reference value :  1.37502e-05
 Reference value :  1.37502e-05
 Reference value :  1.37502e-05
 Reference value :  1.37502e-05
 Reference value :  1.37502e-05
 Reference value :  1.37503e-05
 Reference value :  1.37504e-05
 Reference value :  1.37506e-05
 Reference value :  1.37509e-05
 Reference value :  1.37514e-05
 Reference value :  1.37520e-05
 Reference value :  1.37526e-05
 Reference value :  1.37533e-05
 Reference value :  1.37541e-05
 Reference value :  1.37547e-05
 Reference value :  1.37554e-05
 Reference value :  1.37563e-05
 Reference value :  1.37572e-05
 Reference value :  1.37582e-05
 Reference value :  1.37603e-05
 Reference value :  1.37622e-05
 Reference value :  1.37654e-05
 Reference value :  1.37692e-05
 Reference value :  1.37769e-05
 Reference value :  1.37924e-05
 Reference value :  1.38232e-05
 Reference value :  1.38849e-05
 Reference value :  1.39560e-05
 Reference value :  1.40000e-05
 Reference value :  1.40000e-05
 Reference value :  1.40000e-05
 Reference value :  1.40001e-05
 Reference value :  1.40001e-05
 Reference value :  1.40001e-05
 Reference value :  1.40001e-05
 Reference value :  1.40001e-05
 Reference value :  1.40002e-05
 Reference value :  1.40002e-05
 Reference value :  1.40004e-05
 Reference value :  1.40005e-05
 Reference value :  1.40009e-05
 Reference value :  1.40014e-05
 Reference value :  1.40019e-05
 Reference value :  1.40024e-05
 Reference value :  1.40030e-05
 Reference value :  1.40037e-05
 Reference value :  1.40045e-05
 Reference value :  1.40053e-05
 Reference value :  1.40063e-05
 Reference value :  1.40076e-05
 Reference value :  1.40089e-05
 Reference value :  1.40102e-05
 Reference value :  1.40116e-05
 Reference value :  1.40129e-05
 Reference value :  1.40143e-05
 Reference value :  1.40159e-05
 Reference value :  1.40178e-05
 Reference value :  1.40209e-05
 Reference value :  1.40256e-05
 Reference value :  1.40342e-05
 Reference value :  1.40500e-05
 Reference value :  1.40786e-05
 Reference value :  1.41342e-05
 Reference value :  1.42454e-05
 Reference value :  1.42501e-05
 Reference value :  1.42501e-05
 Reference value :  1.42501e-05
 Reference value :  1.42502e-05
 Reference value :  1.42502e-05
 Reference value :  1.42502e-05
 Reference value :  1.42502e-05
 Reference value :  1.42502e-05
 Reference value :  1.42502e-05
 Reference value :  1.42502e-05
 Reference value :  1.42502e-05
 Reference value :  1.42503e-05
 Reference value :  1.42504e-05
 Reference value :  1.42506e-05
 Reference value :  1.42509e-05
 Reference value :  1.42514e-05
 Reference value :  1.42520e-05
 Reference value :  1.42526e-05
 Reference value :  1.42533e-05
 Reference value :  1.42541e-05
 Reference value :  1.42547e-05
 Reference value :  1.42554e-05
 Reference value :  1.42561e-05
 Reference value :  1.42568e-05
 Reference value :  1.42578e-05
 Reference value :  1.42588e-05
 Reference value :  1.42599e-05
 Reference value :  1.42614e-05
 Reference value :  1.42633e-05
 Reference value :  1.42654e-05
 Reference value :  1.42687e-05
 Reference value :  1.42731e-05
 Reference value :  1.42819e-05
 Reference value :  1.42994e-05
 Reference value :  1.43344e-05
 Reference value :  1.44045e-05
 Reference value :  1.45000e-05
 Reference value :  1.45000e-05
 Reference value :  1.45000e-05
 Reference value :  1.45001e-05
 Reference value :  1.45001e-05
 Reference value :  1.45001e-05
 Reference value :  1.45001e-05
 Reference value :  1.45001e-05
 Reference value :  1.45002e-05
 Reference value :  1.45002e-05
 Reference value :  1.45004e-05
 Reference value :  1.45005e-05
 Reference value :  1.45009e-05
 Reference value :  1.45014e-05
 Reference value :  1.45019e-05
 Reference value :  1.45024e-05
 Reference value :  1.45031e-05
 Reference value :  1.45037e-05
 Reference value :  1.45045e-05
 Reference value :  1.45051e-05
 Reference value :  1.45058e-05
 Reference value :  1.45065e-05
 Reference value :  1.45073e-05
 Reference value :  1.45080e-05
 Reference value :  1.45091e-05
 Reference value :  1.45101e-05
 Reference value :  1.45120e-05
 Reference value :  1.45133e-05
 Reference value :  1.45147e-05
 Reference value :  1.45160e-05
 Reference value :  1.45175e-05
 Reference value :  1.45191e-05
 Reference value :  1.45205e-05
 Reference value :  1.45221e-05
 Reference value :  1.45237e-05
 Reference value :  1.45253e-05
 Reference value :  1.45272e-05
 Reference value :  1.45300e-05
 Reference value :  1.45330e-05
 Reference value :  1.45375e-05
 Reference value :  1.45426e-05
 Reference value :  1.45477e-05
 Reference value :  1.45512e-05
 Reference value :  1.45546e-05
 Reference value :  1.45588e-05
 Reference value :  1.45633e-05
 Reference value :  1.45693e-05
 Reference value :  1.45764e-05
 Reference value :  1.45887e-05
 Reference value :  1.46058e-05
 Reference value :  1.46327e-05
 Reference value :  1.46754e-05
 Reference value :  1.47465e-05
 Reference value :  1.47501e-05
 Reference value :  1.47501e-05
 Reference value :  1.47501e-05
 Reference value :  1.47502e-05
 Reference value :  1.47502e-05
 Reference value :  1.47502e-05
 Reference value :  1.47502e-05
 Reference value :  1.47502e-05
 Reference value :  1.47502e-05
 Reference value :  1.47502e-05
 Reference value :  1.47502e-05
 Reference value :  1.47503e-05
 Reference value :  1.47504e-05
 Reference value :  1.47506e-05
 Reference value :  1.47509e-05
 Reference value :  1.47514e-05
 Reference value :  1.47520e-05
 Reference value :  1.47526e-05
 Reference value :  1.47533e-05
 Reference value :  1.47541e-05
 Reference value :  1.47547e-05
 Reference value :  1.47554e-05
 Reference value :  1.47563e-05
 Reference value :  1.47572e-05
 Reference value :  1.47583e-05
 Reference value :  1.47602e-05
 Reference value :  1.47622e-05
 Reference value :  1.47654e-05
 Reference value :  1.47693e-05
 Reference value :  1.47772e-05
 Reference value :  1.47929e-05
 Reference value :  1.48245e-05
 Reference value :  1.48875e-05
 Reference value :  1.50000e-05
 Reference value :  1.50000e-05
 Reference value :  1.50000e-05
 Reference value :  1.50001e-05
 Reference value :  1.50001e-05
 Reference value :  1.50001e-05
 Reference value :  1.50001e-05
 Reference value :  1.50001e-05
 Reference value :  1.50002e-05
 Reference value :  1.50002e-05
 Reference value :  1.50004e-05
 Reference value :  1.50005e-05
 Reference value :  1.50009e-05
 Reference value :  1.50014e-05
 Reference value :  1.50019e-05
 Reference value :  1.50025e-05
 Reference value :  1.50031e-05
 Reference value :  1.50038e-05
 Reference value :  1.50045e-05
 Reference value :  1.50054e-05
 Reference value :  1.50062e-05
 Reference value :  1.50073e-05
 Reference value :  1.50087e-05
 Reference value :  1.50099e-05
 Reference value :  1.50111e-05
 Reference value :  1.50122e-05
 Reference value :  1.50135e-05
 Reference value :  1.50149e-05
 Reference value :  1.50164e-05
 Reference value :  1.50194e-05
 Reference value :  1.50253e-05
 Reference value :  1.50359e-05
 Reference value :  1.50570e-05
 Reference value :  1.50991e-05
 Reference value :  1.51834e-05
 Reference value :  1.52501e-05
 Reference value :  1.52501e-05
 Reference value :  1.52501e-05
 Reference value :  1.52502e-05
 Reference value :  1.52502e-05
 Reference value :  1.52502e-05
 Reference value :  1.52502e-05
 Reference value :  1.52502e-05
 Reference value :  1.52502e-05
 Reference value :  1.52502e-05
 Reference value :  1.52502e-05
 Reference value :  1.52503e-05
 Reference value :  1.52504e-05
 Reference value :  1.52506e-05
 Reference value :  1.52509e-05
 Reference value :  1.52514e-05
 Reference value :  1.52520e-05
 Reference value :  1.52526e-05
 Reference value :  1.52533e-05
 Reference value :  1.52541e-05
 Reference value :  1.52547e-05
 Reference value :  1.52554e-05
 Reference value :  1.52561e-05
 Reference value :  1.52569e-05
 Reference value :  1.52578e-05
 Reference value :  1.52589e-05
 Reference value :  1.52610e-05
 Reference value :  1.52632e-05
 Reference value :  1.52670e-05
 Reference value :  1.52718e-05
 Reference value :  1.52815e-05
 Reference value :  1.53010e-05
 Reference value :  1.53398e-05
 Reference value :  1.54175e-05
 Reference value :  1.55000e-05
 Reference value :  1.55012e-05
 Reference value :  1.55035e-05
 Reference value :  1.55047e-05
 Reference value :  1.55059e-05
 Reference value :  1.55074e-05
 Reference value :  1.55086e-05
 Reference value :  1.55098e-05
 Reference value :  1.55112e-05
 Reference value :  1.55126e-05
 Reference value :  1.55148e-05
 Reference value :  1.55168e-05
 Reference value :  1.55187e-05
 Reference value :  1.55202e-05
 Reference value :  1.55216e-05
 Reference value :  1.55228e-05
 Reference value :  1.55243e-05
 Reference value :  1.55258e-05
 Reference value :  1.55276e-05
 Reference value :  1.55299e-05
 Reference value :  1.55332e-05
 Reference value :  1.55384e-05
 Reference value :  1.55437e-05
 Reference value :  1.55514e-05
 Reference value :  1.55562e-05
 Reference value :  1.55615e-05
 Reference value :  1.55692e-05
 Reference value :  1.55769e-05
 Reference value :  1.55840e-05
 Reference value :  1.55931e-05
 Reference value :  1.56022e-05
 Reference value :  1.56200e-05
 Reference value :  1.56423e-05
 Reference value :  1.56793e-05
 Reference value :  1.57447e-05
 Reference value :  1.57501e-05
 Reference value :  1.57501e-05
 Reference value :  1.57501e-05
 Reference value :  1.57502e-05
 Reference value :  1.57502e-05
 Reference value :  1.57502e-05
 Reference value :  1.57502e-05
 Reference value :  1.57502e-05
 Reference value :  1.57502e-05
 Reference value :  1.57502e-05
 Reference value :  1.57502e-05
 Reference value :  1.57503e-05
 Reference value :  1.57504e-05
 Reference value :  1.57506e-05
 Reference value :  1.57509e-05
[...]
 Reference value :  2.67754e-04
 Reference value :  2.67755e-04
 Reference value :  2.67755e-04
 Reference value :  2.67756e-04
 Reference value :  2.67757e-04
 Reference value :  2.67758e-04
 Reference value :  2.67760e-04
 Reference value :  2.67762e-04
 Reference value :  2.67765e-04
 Reference value :  2.67769e-04
 Reference value :  2.67777e-04
 Reference value :  2.67792e-04
 Reference value :  2.67823e-04
 Reference value :  2.67885e-04
 Reference value :  2.68000e-04
 Reference value :  2.68000e-04
 Reference value :  2.68000e-04
 Reference value :  2.68000e-04
 Reference value :  2.68000e-04
 Reference value :  2.68000e-04
 Reference value :  2.68000e-04
 Reference value :  2.68000e-04
 Reference value :  2.68000e-04
 Reference value :  2.68000e-04
 Reference value :  2.68000e-04
 Reference value :  2.68001e-04
 Reference value :  2.68001e-04
 Reference value :  2.68001e-04
 Reference value :  2.68002e-04
 Reference value :  2.68002e-04
 Reference value :  2.68003e-04
 Reference value :  2.68004e-04
 Reference value :  2.68005e-04
 Reference value :  2.68005e-04
 Reference value :  2.68006e-04
 Reference value :  2.68007e-04
 Reference value :  2.68009e-04
 Reference value :  2.68010e-04
 Reference value :  2.68011e-04
 Reference value :  2.68012e-04
 Reference value :  2.68014e-04
 Reference value :  2.68015e-04
 Reference value :  2.68016e-04
 Reference value :  2.68019e-04
 Reference value :  2.68025e-04
 Reference value :  2.68036e-04
 Reference value :  2.68057e-04
 Reference value :  2.68100e-04
 Reference value :  2.68184e-04
 Reference value :  2.68250e-04
 Reference value :  2.68250e-04
 Reference value :  2.68250e-04
 Reference value :  2.68250e-04
 Reference value :  2.68250e-04
 Reference value :  2.68250e-04
 Reference value :  2.68250e-04
 Reference value :  2.68250e-04
 Reference value :  2.68250e-04
 Reference value :  2.68250e-04
 Reference value :  2.68250e-04
 Reference value :  2.68250e-04
 Reference value :  2.68250e-04
 Reference value :  2.68251e-04
 Reference value :  2.68251e-04
 Reference value :  2.68251e-04
 Reference value :  2.68252e-04
 Reference value :  2.68253e-04
 Reference value :  2.68253e-04
 Reference value :  2.68254e-04
 Reference value :  2.68255e-04
 Reference value :  2.68255e-04
 Reference value :  2.68256e-04
 Reference value :  2.68257e-04
 Reference value :  2.68258e-04
 Reference value :  2.68259e-04
 Reference value :  2.68260e-04
 Reference value :  2.68262e-04
 Reference value :  2.68264e-04
 Reference value :  2.68266e-04
 Reference value :  2.68269e-04
 Reference value :  2.68274e-04
 Reference value :  2.68283e-04
 Reference value :  2.68301e-04
 Reference value :  2.68338e-04
 Reference value :  2.68411e-04
 Reference value :  2.68500e-04
 Reference value :  2.68500e-04
 Reference value :  2.68500e-04
 Reference value :  2.68500e-04
 Reference value :  2.68500e-04
 Reference value :  2.68500e-04
 Reference value :  2.68500e-04
 Reference value :  2.68500e-04
 Reference value :  2.68500e-04
 Reference value :  2.68500e-04
 Reference value :  2.68500e-04
 Reference value :  2.68501e-04
 Reference value :  2.68501e-04
 Reference value :  2.68501e-04
 Reference value :  2.68502e-04
 Reference value :  2.68502e-04
 Reference value :  2.68503e-04
 Reference value :  2.68504e-04
 Reference value :  2.68505e-04
 Reference value :  2.68505e-04
 Reference value :  2.68506e-04
 Reference value :  2.68507e-04
 Reference value :  2.68507e-04
 Reference value :  2.68508e-04
 Reference value :  2.68509e-04
 Reference value :  2.68510e-04
 Reference value :  2.68512e-04
 Reference value :  2.68513e-04
 Reference value :  2.68514e-04
 Reference value :  2.68516e-04
 Reference value :  2.68517e-04
 Reference value :  2.68519e-04
 Reference value :  2.68520e-04
 Reference value :  2.68522e-04
 Reference value :  2.68523e-04
 Reference value :  2.68524e-04
 Reference value :  2.68526e-04
 Reference value :  2.68528e-04
 Reference value :  2.68530e-04
 Reference value :  2.68532e-04
 Reference value :  2.68534e-04
 Reference value :  2.68536e-04
 Reference value :  2.68538e-04
 Reference value :  2.68540e-04
 Reference value :  2.68545e-04
 Reference value :  2.68550e-04
 Reference value :  2.68558e-04
 Reference value :  2.68570e-04
 Reference value :  2.68583e-04
 Reference value :  2.68599e-04
 Reference value :  2.68623e-04
 Reference value :  2.68671e-04
 Reference value :  2.68749e-04
 Reference value :  2.68750e-04
 Reference value :  2.68750e-04
 Reference value :  2.68750e-04
 Reference value :  2.68750e-04
 Reference value :  2.68750e-04
 Reference value :  2.68750e-04
 Reference value :  2.68750e-04
 Reference value :  2.68750e-04
 Reference value :  2.68750e-04
 Reference value :  2.68750e-04
 Reference value :  2.68750e-04
 Reference value :  2.68750e-04
 Reference value :  2.68750e-04
 Reference value :  2.68751e-04
 Reference value :  2.68751e-04
 Reference value :  2.68751e-04
 Reference value :  2.68752e-04
 Reference value :  2.68753e-04
 Reference value :  2.68753e-04
 Reference value :  2.68754e-04
 Reference value :  2.68755e-04
 Reference value :  2.68755e-04
 Reference value :  2.68756e-04
 Reference value :  2.68757e-04
 Reference value :  2.68758e-04
 Reference value :  2.68760e-04
 Reference value :  2.68762e-04
 Reference value :  2.68765e-04
 Reference value :  2.68769e-04
 Reference value :  2.68777e-04
 Reference value :  2.68793e-04
 Reference value :  2.68825e-04
 Reference value :  2.68888e-04
 Reference value :  2.69000e-04
 Reference value :  2.69000e-04
 Reference value :  2.69000e-04
 Reference value :  2.69000e-04
 Reference value :  2.69000e-04
 Reference value :  2.69000e-04
 Reference value :  2.69000e-04
 Reference value :  2.69000e-04
 Reference value :  2.69000e-04
 Reference value :  2.69000e-04
 Reference value :  2.69000e-04
 Reference value :  2.69001e-04
 Reference value :  2.69001e-04
 Reference value :  2.69001e-04
 Reference value :  2.69002e-04
 Reference value :  2.69002e-04
 Reference value :  2.69003e-04
 Reference value :  2.69004e-04
 Reference value :  2.69005e-04
 Reference value :  2.69005e-04
 Reference value :  2.69006e-04
 Reference value :  2.69008e-04
 Reference value :  2.69009e-04
 Reference value :  2.69010e-04
 Reference value :  2.69012e-04
 Reference value :  2.69013e-04
 Reference value :  2.69014e-04
 Reference value :  2.69016e-04
 Reference value :  2.69018e-04
 Reference value :  2.69021e-04
 Reference value :  2.69025e-04
 Reference value :  2.69034e-04
 Reference value :  2.69050e-04
 Reference value :  2.69079e-04
 Reference value :  2.69137e-04
 Reference value :  2.69250e-04
 Reference value :  2.69250e-04
 Reference value :  2.69250e-04
 Reference value :  2.69250e-04
 Reference value :  2.69250e-04
 Reference value :  2.69250e-04
 Reference value :  2.69250e-04
 Reference value :  2.69250e-04
 Reference value :  2.69250e-04
 Reference value :  2.69250e-04
 Reference value :  2.69250e-04
 Reference value :  2.69250e-04
 Reference value :  2.69250e-04
 Reference value :  2.69251e-04
 Reference value :  2.69251e-04
 Reference value :  2.69251e-04
 Reference value :  2.69252e-04
 Reference value :  2.69253e-04
 Reference value :  2.69253e-04
 Reference value :  2.69254e-04
 Reference value :  2.69255e-04
 Reference value :  2.69255e-04
 Reference value :  2.69256e-04
 Reference value :  2.69257e-04
 Reference value :  2.69258e-04
 Reference value :  2.69259e-04
 Reference value :  2.69261e-04
 Reference value :  2.69263e-04
 Reference value :  2.69267e-04
 Reference value :  2.69272e-04
 Reference value :  2.69281e-04
 Reference value :  2.69300e-04
 Reference value :  2.69338e-04
 Reference value :  2.69415e-04
 Reference value :  2.69500e-04
 Reference value :  2.69500e-04
 Reference value :  2.69500e-04
 Reference value :  2.69500e-04
 Reference value :  2.69500e-04
 Reference value :  2.69500e-04
 Reference value :  2.69500e-04
 Reference value :  2.69500e-04
 Reference value :  2.69500e-04
 Reference value :  2.69500e-04
 Reference value :  2.69500e-04
 Reference value :  2.69501e-04
 Reference value :  2.69501e-04
 Reference value :  2.69501e-04
 Reference value :  2.69502e-04
 Reference value :  2.69502e-04
 Reference value :  2.69503e-04
 Reference value :  2.69504e-04
 Reference value :  2.69505e-04
 Reference value :  2.69505e-04
 Reference value :  2.69506e-04
 Reference value :  2.69507e-04
 Reference value :  2.69507e-04
 Reference value :  2.69508e-04
 Reference value :  2.69509e-04
 Reference value :  2.69511e-04
 Reference value :  2.69513e-04
 Reference value :  2.69515e-04
 Reference value :  2.69517e-04
 Reference value :  2.69519e-04
 Reference value :  2.69521e-04
 Reference value :  2.69523e-04
 Reference value :  2.69525e-04
 Reference value :  2.69526e-04
 Reference value :  2.69529e-04
 Reference value :  2.69531e-04
 Reference value :  2.69535e-04
 Reference value :  2.69539e-04
 Reference value :  2.69546e-04
 Reference value :  2.69553e-04
 Reference value :  2.69560e-04
 Reference value :  2.69566e-04
 Reference value :  2.69571e-04
 Reference value :  2.69578e-04
 Reference value :  2.69586e-04
 Reference value :  2.69597e-04
 Reference value :  2.69610e-04
 Reference value :  2.69628e-04
 Reference value :  2.69644e-04
 Reference value :  2.69668e-04
 Reference value :  2.69689e-04
 Reference value :  2.69709e-04
 Reference value :  2.69728e-04
 Reference value :  2.69745e-04
 Reference value :  2.69750e-04
 Reference value :  2.69750e-04
 Reference value :  2.69750e-04
 Reference value :  2.69750e-04
 Reference value :  2.69750e-04
 Reference value :  2.69750e-04
 Reference value :  2.69750e-04
 Reference value :  2.69750e-04
 Reference value :  2.69750e-04
 Reference value :  2.69750e-04
 Reference value :  2.69750e-04
 Reference value :  2.69750e-04
 Reference value :  2.69750e-04
 Reference value :  2.69751e-04
 Reference value :  2.69751e-04
 Reference value :  2.69751e-04
 Reference value :  2.69752e-04
 Reference value :  2.69753e-04
 Reference value :  2.69753e-04
 Reference value :  2.69754e-04
 Reference value :  2.69755e-04
 Reference value :  2.69755e-04
 Reference value :  2.69756e-04
 Reference value :  2.69757e-04
 Reference value :  2.69758e-04
 Reference value :  2.69760e-04
 Reference value :  2.69762e-04
 Reference value :  2.69766e-04
 Reference value :  2.69770e-04
 Reference value :  2.69778e-04
 Reference value :  2.69793e-04
 Reference value :  2.69825e-04
 Reference value :  2.69889e-04
 Reference value :  2.70000e-04
 Reference value :  2.70000e-04
 Reference value :  2.70000e-04
 Reference value :  2.70000e-04
 Reference value :  2.70000e-04
 Reference value :  2.70000e-04
 Reference value :  2.70000e-04
 Reference value :  2.70000e-04
 Reference value :  2.70000e-04
 Reference value :  2.70000e-04
 Reference value :  2.70000e-04
 Reference value :  2.70001e-04
 Reference value :  2.70001e-04
 Reference value :  2.70001e-04
 Reference value :  2.70002e-04
 Reference value :  2.70002e-04
 Reference value :  2.70003e-04
 Reference value :  2.70004e-04
 Reference value :  2.70005e-04
 Reference value :  2.70005e-04
 Reference value :  2.70006e-04
 Reference value :  2.70007e-04
 Reference value :  2.70009e-04
 Reference value :  2.70010e-04
 Reference value :  2.70011e-04
 Reference value :  2.70012e-04
 Reference value :  2.70014e-04
 Reference value :  2.70015e-04
 Reference value :  2.70016e-04
 Reference value :  2.70019e-04
 Reference value :  2.70025e-04
 Reference value :  2.70036e-04
 Reference value :  2.70058e-04
 Reference value :  2.70100e-04
 Reference value :  2.70186e-04
 Reference value :  2.70250e-04
 Reference value :  2.70250e-04
 Reference value :  2.70250e-04
 Reference value :  2.70250e-04
 Reference value :  2.70250e-04
 Reference value :  2.70250e-04
 Reference value :  2.70250e-04
 Reference value :  2.70250e-04
 Reference value :  2.70250e-04
 Reference value :  2.70250e-04
 Reference value :  2.70250e-04
 Reference value :  2.70250e-04
 Reference value :  2.70250e-04
 Reference value :  2.70251e-04
 Reference value :  2.70251e-04
 Reference value :  2.70251e-04
 Reference value :  2.70252e-04
 Reference value :  2.70253e-04
 Reference value :  2.70253e-04
 Reference value :  2.70254e-04
 Reference value :  2.70255e-04
 Reference value :  2.70255e-04
 Reference value :  2.70256e-04
 Reference value :  2.70257e-04
 Reference value :  2.70258e-04
 Reference value :  2.70259e-04
 Reference value :  2.70261e-04
 Reference value :  2.70263e-04
 Reference value :  2.70267e-04
 Reference value :  2.70272e-04
 Reference value :  2.70281e-04
 Reference value :  2.70301e-04
 Reference value :  2.70340e-04
 Reference value :  2.70417e-04
 Reference value :  2.70500e-04
 Reference value :  2.70500e-04
 Reference value :  2.70500e-04
 Reference value :  2.70500e-04
 Reference value :  2.70500e-04
 Reference value :  2.70500e-04
 Reference value :  2.70500e-04
 Reference value :  2.70500e-04
 Reference value :  2.70500e-04
 Reference value :  2.70500e-04
 Reference value :  2.70500e-04
 Reference value :  2.70501e-04
 Reference value :  2.70501e-04
 Reference value :  2.70501e-04
 Reference value :  2.70502e-04
 Reference value :  2.70502e-04
 Reference value :  2.70503e-04
 Reference value :  2.70504e-04
 Reference value :  2.70505e-04
 Reference value :  2.70505e-04
 Reference value :  2.70506e-04
 Reference value :  2.70507e-04
 Reference value :  2.70507e-04
 Reference value :  2.70508e-04
 Reference value :  2.70510e-04
 Reference value :  2.70511e-04
 Reference value :  2.70513e-04
 Reference value :  2.70515e-04
 Reference value :  2.70517e-04
 Reference value :  2.70520e-04
 Reference value :  2.70521e-04
 Reference value :  2.70523e-04
 Reference value :  2.70524e-04
 Reference value :  2.70526e-04
 Reference value :  2.70528e-04
 Reference value :  2.70531e-04
 Reference value :  2.70534e-04
 Reference value :  2.70539e-04
 Reference value :  2.70543e-04
 Reference value :  2.70550e-04
 Reference value :  2.70560e-04
 Reference value :  2.70572e-04
 Reference value :  2.70580e-04
 Reference value :  2.70589e-04
 Reference value :  2.70602e-04
 Reference value :  2.70616e-04
 Reference value :  2.70638e-04
 Reference value :  2.70668e-04
 Reference value :  2.70715e-04
 Reference value :  2.70750e-04
 Reference value :  2.70750e-04
 Reference value :  2.70750e-04
 Reference value :  2.70750e-04
 Reference value :  2.70750e-04
 Reference value :  2.70750e-04
 Reference value :  2.70750e-04
 Reference value :  2.70750e-04
 Reference value :  2.70750e-04
 Reference value :  2.70750e-04
 Reference value :  2.70750e-04
 Reference value :  2.70750e-04
 Reference value :  2.70750e-04
 Reference value :  2.70751e-04
 Reference value :  2.70751e-04
 Reference value :  2.70751e-04
 Reference value :  2.70752e-04
 Reference value :  2.70753e-04
 Reference value :  2.70753e-04
 Reference value :  2.70754e-04
 Reference value :  2.70755e-04
 Reference value :  2.70755e-04
 Reference value :  2.70756e-04
 Reference value :  2.70757e-04
 Reference value :  2.70758e-04
 Reference value :  2.70760e-04
 Reference value :  2.70762e-04
 Reference value :  2.70765e-04
 Reference value :  2.70769e-04
 Reference value :  2.70777e-04
 Reference value :  2.70792e-04
 Reference value :  2.70821e-04
 Reference value :  2.70858e-04
 Reference value :  2.70898e-04
 Reference value :  2.70926e-04
 Reference value :  2.70952e-04
 Reference value :  2.70989e-04
 Reference value :  2.71000e-04
 Reference value :  2.71000e-04
 Reference value :  2.71000e-04
 Reference value :  2.71000e-04
 Reference value :  2.71000e-04
 Reference value :  2.71000e-04
 Reference value :  2.71000e-04
 Reference value :  2.71000e-04
 Reference value :  2.71000e-04
 Reference value :  2.71000e-04
 Reference value :  2.71000e-04
 Reference value :  2.71001e-04
 Reference value :  2.71001e-04
 Reference value :  2.71001e-04
 Reference value :  2.71002e-04
 Reference value :  2.71003e-04
 Reference value :  2.71003e-04
 Reference value :  2.71004e-04
 Reference value :  2.71005e-04
 Reference value :  2.71005e-04
 Reference value :  2.71006e-04
 Reference value :  2.71007e-04
 Reference value :  2.71009e-04
 Reference value :  2.71010e-04
 Reference value :  2.71011e-04
 Reference value :  2.71013e-04
 Reference value :  2.71014e-04
 Reference value :  2.71015e-04
 Reference value :  2.71017e-04
 Reference value :  2.71020e-04
 Reference value :  2.71025e-04
 Reference value :  2.71036e-04
 Reference value :  2.71057e-04
 Reference value :  2.71100e-04
 Reference value :  2.71155e-04
 Reference value :  2.71250e-04
 Reference value :  2.71250e-04
 Reference value :  2.71250e-04
 Reference value :  2.71250e-04
 Reference value :  2.71250e-04
 Reference value :  2.71250e-04
 Reference value :  2.71250e-04
 Reference value :  2.71250e-04
 Reference value :  2.71250e-04
 Reference value :  2.71250e-04
 Reference value :  2.71250e-04
 Reference value :  2.71250e-04
 Reference value :  2.71250e-04
 Reference value :  2.71251e-04
 Reference value :  2.71251e-04
 Reference value :  2.71251e-04
 Reference value :  2.71252e-04
 Reference value :  2.71253e-04
 Reference value :  2.71253e-04
 Reference value :  2.71254e-04
 Reference value :  2.71255e-04
 Reference value :  2.71255e-04
 Reference value :  2.71256e-04
 Reference value :  2.71257e-04
 Reference value :  2.71258e-04
 Reference value :  2.71259e-04
 Reference value :  2.71261e-04
 Reference value :  2.71263e-04
 Reference value :  2.71266e-04
 Reference value :  2.71271e-04
 Reference value :  2.71280e-04
 Reference value :  2.71297e-04
 Reference value :  2.71333e-04
 Reference value :  2.71404e-04
 Reference value :  2.71500e-04
 Reference value :  2.71500e-04
 Reference value :  2.71500e-04
 Reference value :  2.71500e-04
 Reference value :  2.71500e-04
 Reference value :  2.71500e-04
 Reference value :  2.71500e-04
 Reference value :  2.71500e-04
 Reference value :  2.71500e-04
 Reference value :  2.71500e-04
 Reference value :  2.71500e-04
 Reference value :  2.71501e-04
 Reference value :  2.71501e-04
 Reference value :  2.71501e-04
 Reference value :  2.71502e-04
 Reference value :  2.71502e-04
 Reference value :  2.71503e-04
 Reference value :  2.71504e-04
 Reference value :  2.71505e-04
 Reference value :  2.71505e-04
 Reference value :  2.71506e-04
 Reference value :  2.71507e-04
 Reference value :  2.71508e-04
 Reference value :  2.71508e-04
 Reference value :  2.71510e-04
 Reference value :  2.71511e-04
 Reference value :  2.71513e-04
 Reference value :  2.71516e-04
 Reference value :  2.71518e-04
 Reference value :  2.71520e-04
 Reference value :  2.71522e-04
 Reference value :  2.71524e-04
 Reference value :  2.71528e-04
 Reference value :  2.71533e-04
 Reference value :  2.71542e-04
 Reference value :  2.71556e-04
 Reference value :  2.71580e-04
 Reference value :  2.71622e-04
 Reference value :  2.71695e-04
 Reference value :  2.71750e-04
 Reference value :  2.71750e-04
 Reference value :  2.71750e-04
 Reference value :  2.71750e-04
 Reference value :  2.71750e-04
 Reference value :  2.71750e-04
 Reference value :  2.71750e-04
 Reference value :  2.71750e-04
 Reference value :  2.71750e-04
 Reference value :  2.71750e-04
 Reference value :  2.71750e-04
 Reference value :  2.71750e-04
 Reference value :  2.71750e-04
 Reference value :  2.71751e-04
 Reference value :  2.71751e-04
 Reference value :  2.71751e-04
 Reference value :  2.71752e-04
 Reference value :  2.71753e-04
 Reference value :  2.71753e-04
 Reference value :  2.71754e-04
 Reference value :  2.71755e-04
 Reference value :  2.71756e-04
 Reference value :  2.71758e-04
 Reference value :  2.71759e-04
 Reference value :  2.71761e-04
 Reference value :  2.71764e-04
 Reference value :  2.71767e-04
 Reference value :  2.71773e-04
 Reference value :  2.71784e-04
 Reference value :  2.71807e-04
 Reference value :  2.71851e-04
 Reference value :  2.71941e-04
 Reference value :  2.72000e-04
No. of Data Rows : 41534
ngspice-44 done
