
Note: Compatibility modes selected: hs a


Circuit: ** sch_path: /home/samantha/cace/sar-adc-using-sky130-pdk/runs/run_2025-09-03_20-41-05/parameters/sampling_rate/run_10/sampling_rate.sch

option SCALE: Scale is set to 1e-06 for instance and model parameters
option SCALE: Scale is set to 1e-06 for instance and model parameters
option SCALE: Scale is set to 1e-06 for instance and model parameters
option SCALE: Scale is set to 1e-06 for instance and model parameters
Doing analysis at TEMP = 27.000000 and TNOM = 27.000000

Using KLU as Direct Linear Solver
Operating point simulation skipped by 'uic',
  now using transient initial conditions.
 Reference value :  1.00000e-12
 Reference value :  1.02800e-12
 Reference value :  1.08400e-12
 Reference value :  1.19600e-12
 Reference value :  1.42000e-12
 Reference value :  1.70309e-12
 Reference value :  2.26926e-12
 Reference value :  3.16107e-12
 Reference value :  4.39924e-12
 Reference value :  6.24721e-12
 Reference value :  1.34754e-11
 Reference value :  3.14839e-11
 Reference value :  5.54952e-11
 Reference value :  1.00000e-10
 Reference value :  1.04802e-10
 Reference value :  1.14407e-10
 Reference value :  1.33616e-10
 Reference value :  1.72034e-10
 Reference value :  2.48870e-10
 Reference value :  4.02543e-10
 Reference value :  6.42646e-10
 Reference value :  9.55185e-10
 Reference value :  1.34170e-09
 Reference value :  1.86558e-09
 Reference value :  2.51201e-09
 Reference value :  3.30314e-09
 Reference value :  4.19715e-09
 Reference value :  5.26013e-09
 Reference value :  6.13612e-09
 Reference value :  7.14622e-09
 Reference value :  7.82837e-09
 Reference value :  8.54932e-09
 Reference value :  9.27673e-09
 Reference value :  1.00449e-08
 Reference value :  1.12043e-08
 Reference value :  1.24268e-08
 Reference value :  1.34729e-08
 Reference value :  1.43272e-08
 Reference value :  1.52302e-08
 Reference value :  1.60480e-08
 Reference value :  1.73296e-08
 Reference value :  1.89395e-08
 Reference value :  2.14456e-08
 Reference value :  2.54031e-08
 Reference value :  3.36404e-08
 Reference value :  4.48024e-08
 Reference value :  6.73794e-08
 Reference value :  1.36576e-07
 Reference value :  2.50100e-07
 Reference value :  2.50130e-07
 Reference value :  2.50170e-07
 Reference value :  2.50200e-07
 Reference value :  2.50208e-07
 Reference value :  2.50223e-07
 Reference value :  2.50253e-07
 Reference value :  2.50313e-07
 Reference value :  2.50406e-07
 Reference value :  2.50547e-07
 Reference value :  2.50749e-07
 Reference value :  2.51002e-07
 Reference value :  2.51450e-07
 Reference value :  2.51921e-07
 Reference value :  2.53079e-07
 Reference value :  2.53953e-07
 Reference value :  2.54551e-07
 Reference value :  2.55242e-07
 Reference value :  2.56012e-07
 Reference value :  2.56875e-07
 Reference value :  2.59265e-07
 Reference value :  2.60859e-07
 Reference value :  2.63756e-07
 Reference value :  2.67345e-07
 Reference value :  2.74525e-07
 Reference value :  2.85821e-07
 Reference value :  3.04891e-07
 Reference value :  3.94187e-07
 Reference value :  4.91744e-07
 Reference value :  5.00010e-07
 Reference value :  5.00030e-07
 Reference value :  5.00100e-07
 Reference value :  5.00124e-07
 Reference value :  5.00220e-07
 Reference value :  5.00348e-07
 Reference value :  5.00520e-07
 Reference value :  5.00863e-07
 Reference value :  5.01297e-07
 Reference value :  5.02236e-07
 Reference value :  5.02764e-07
 Reference value :  5.03392e-07
 Reference value :  5.03998e-07
 Reference value :  5.04673e-07
 Reference value :  5.05388e-07
 Reference value :  5.06374e-07
 Reference value :  5.07573e-07
 Reference value :  5.09489e-07
 Reference value :  5.10818e-07
 Reference value :  5.12286e-07
 Reference value :  5.13807e-07
 Reference value :  5.15550e-07
 Reference value :  5.17708e-07
 Reference value :  5.19761e-07
 Reference value :  5.22152e-07
 Reference value :  5.26387e-07
 Reference value :  5.39471e-07
 Reference value :  5.76501e-07
 Reference value :  6.17106e-07
 Reference value :  6.82258e-07
 Reference value :  7.50100e-07
 Reference value :  7.50110e-07
 Reference value :  7.50170e-07
 Reference value :  7.50200e-07
 Reference value :  7.50208e-07
 Reference value :  7.50254e-07
 Reference value :  7.50317e-07
 Reference value :  7.50441e-07
 Reference value :  7.50614e-07
 Reference value :  7.50849e-07
 Reference value :  7.51262e-07
 Reference value :  7.51750e-07
 Reference value :  7.52256e-07
 Reference value :  7.52826e-07
 Reference value :  7.53617e-07
 Reference value :  7.54187e-07
 Reference value :  7.54843e-07
 Reference value :  7.55427e-07
 Reference value :  7.56076e-07
 Reference value :  7.56932e-07
 Reference value :  7.57834e-07
 Reference value :  7.59621e-07
 Reference value :  7.65260e-07
 Reference value :  7.71184e-07
 Reference value :  7.83031e-07
 Reference value :  8.06726e-07
 Reference value :  9.48896e-07
 Reference value :  1.00000e-06
 Reference value :  1.00001e-06
 Reference value :  1.00003e-06
 Reference value :  1.00007e-06
 Reference value :  1.00010e-06
 Reference value :  1.00011e-06
 Reference value :  1.00012e-06
 Reference value :  1.00016e-06
 Reference value :  1.00022e-06
 Reference value :  1.00035e-06
 Reference value :  1.00052e-06
 Reference value :  1.00130e-06
 Reference value :  1.00176e-06
 Reference value :  1.00223e-06
 Reference value :  1.00276e-06
 Reference value :  1.00340e-06
 Reference value :  1.00403e-06
 Reference value :  1.00457e-06
 Reference value :  1.00520e-06
 Reference value :  1.00580e-06
 Reference value :  1.00647e-06
 Reference value :  1.00804e-06
 Reference value :  1.00915e-06
 Reference value :  1.01087e-06
 Reference value :  1.01269e-06
 Reference value :  1.01416e-06
 Reference value :  1.01542e-06
 Reference value :  1.01662e-06
 Reference value :  1.01787e-06
 Reference value :  1.01897e-06
 Reference value :  1.02015e-06
 Reference value :  1.02146e-06
 Reference value :  1.02312e-06
 Reference value :  1.02506e-06
 Reference value :  1.02774e-06
 Reference value :  1.02984e-06
 Reference value :  1.03243e-06
 Reference value :  1.04013e-06
 Reference value :  1.04323e-06
 Reference value :  1.04661e-06
 Reference value :  1.05184e-06
 Reference value :  1.06227e-06
 Reference value :  1.07446e-06
 Reference value :  1.10056e-06
 Reference value :  1.16750e-06
 Reference value :  1.25010e-06
 Reference value :  1.25011e-06
 Reference value :  1.25013e-06
 Reference value :  1.25017e-06
 Reference value :  1.25020e-06
 Reference value :  1.25021e-06
 Reference value :  1.25022e-06
 Reference value :  1.25025e-06
 Reference value :  1.25032e-06
 Reference value :  1.25044e-06
 Reference value :  1.25061e-06
 Reference value :  1.25085e-06
 Reference value :  1.25126e-06
 Reference value :  1.25175e-06
 Reference value :  1.25226e-06
 Reference value :  1.25283e-06
 Reference value :  1.25363e-06
 Reference value :  1.25419e-06
 Reference value :  1.25482e-06
 Reference value :  1.25545e-06
 Reference value :  1.25613e-06
 Reference value :  1.25706e-06
 Reference value :  1.25839e-06
 Reference value :  1.26000e-06
 Reference value :  1.26272e-06
 Reference value :  1.27304e-06
 Reference value :  1.28680e-06
 Reference value :  1.31431e-06
 Reference value :  1.36933e-06
 Reference value :  1.47937e-06
 Reference value :  1.50000e-06
 Reference value :  1.50001e-06
 Reference value :  1.50003e-06
 Reference value :  1.50010e-06
 Reference value :  1.50011e-06
 Reference value :  1.50012e-06
 Reference value :  1.50016e-06
 Reference value :  1.50022e-06
 Reference value :  1.50035e-06
 Reference value :  1.50052e-06
 Reference value :  1.50086e-06
 Reference value :  1.50130e-06
 Reference value :  1.50176e-06
 Reference value :  1.50221e-06
 Reference value :  1.50270e-06
 Reference value :  1.50331e-06
 Reference value :  1.50404e-06
 Reference value :  1.50485e-06
 Reference value :  1.50558e-06
 Reference value :  1.50674e-06
 Reference value :  1.50756e-06
 Reference value :  1.50850e-06
 Reference value :  1.50950e-06
 Reference value :  1.51063e-06
 Reference value :  1.51178e-06
 Reference value :  1.51550e-06
 Reference value :  1.52580e-06
 Reference value :  1.53796e-06
 Reference value :  1.56139e-06
 Reference value :  1.70202e-06
 Reference value :  1.75010e-06
 Reference value :  1.75011e-06
 Reference value :  1.75013e-06
 Reference value :  1.75017e-06
 Reference value :  1.75020e-06
 Reference value :  1.75022e-06
 Reference value :  1.75026e-06
 Reference value :  1.75032e-06
 Reference value :  1.75045e-06
 Reference value :  1.75086e-06
 Reference value :  1.75127e-06
 Reference value :  1.75176e-06
 Reference value :  1.75226e-06
 Reference value :  1.75284e-06
 Reference value :  1.75361e-06
 Reference value :  1.75417e-06
 Reference value :  1.75482e-06
 Reference value :  1.75540e-06
 Reference value :  1.75604e-06
 Reference value :  1.75688e-06
 Reference value :  1.75779e-06
 Reference value :  1.75869e-06
 Reference value :  1.75991e-06
 Reference value :  1.76111e-06
 Reference value :  1.76290e-06
 Reference value :  1.76524e-06
 Reference value :  1.76852e-06
 Reference value :  1.77449e-06
 Reference value :  1.79678e-06
 Reference value :  1.85286e-06
 Reference value :  2.00000e-06
 Reference value :  2.00001e-06
 Reference value :  2.00003e-06
 Reference value :  2.00007e-06
 Reference value :  2.00010e-06
 Reference value :  2.00012e-06
 Reference value :  2.00022e-06
 Reference value :  2.00052e-06
 Reference value :  2.00130e-06
 Reference value :  2.00176e-06
 Reference value :  2.00223e-06
 Reference value :  2.00276e-06
 Reference value :  2.00340e-06
 Reference value :  2.00403e-06
 Reference value :  2.00457e-06
 Reference value :  2.00520e-06
 Reference value :  2.00581e-06
 Reference value :  2.00649e-06
 Reference value :  2.00718e-06
 Reference value :  2.00806e-06
 Reference value :  2.00908e-06
 Reference value :  2.01047e-06
 Reference value :  2.01147e-06
 Reference value :  2.01255e-06
 Reference value :  2.01356e-06
 Reference value :  2.01469e-06
 Reference value :  2.01544e-06
 Reference value :  2.01626e-06
 Reference value :  2.01735e-06
 Reference value :  2.01847e-06
 Reference value :  2.01952e-06
 Reference value :  2.02082e-06
 Reference value :  2.02218e-06
 Reference value :  2.02679e-06
 Reference value :  2.04018e-06
 Reference value :  2.07888e-06
 Reference value :  2.17552e-06
 Reference value :  2.25011e-06
 Reference value :  2.25017e-06
 Reference value :  2.25020e-06
 Reference value :  2.25021e-06
 Reference value :  2.25025e-06
 Reference value :  2.25032e-06
 Reference value :  2.25044e-06
 Reference value :  2.25085e-06
 Reference value :  2.25126e-06
 Reference value :  2.25175e-06
 Reference value :  2.25226e-06
 Reference value :  2.25283e-06
 Reference value :  2.25363e-06
 Reference value :  2.25420e-06
 Reference value :  2.25485e-06
 Reference value :  2.25547e-06
 Reference value :  2.25712e-06
 Reference value :  2.26003e-06
 Reference value :  2.26623e-06
 Reference value :  2.28767e-06
 Reference value :  2.37340e-06
 Reference value :  2.50000e-06
 Reference value :  2.50001e-06
 Reference value :  2.50007e-06
 Reference value :  2.50011e-06
 Reference value :  2.50016e-06
 Reference value :  2.50035e-06
 Reference value :  2.50086e-06
 Reference value :  2.50130e-06
 Reference value :  2.50221e-06
 Reference value :  2.50270e-06
 Reference value :  2.50331e-06
 Reference value :  2.50404e-06
 Reference value :  2.50559e-06
 Reference value :  2.50674e-06
 Reference value :  2.50756e-06
 Reference value :  2.50850e-06
 Reference value :  2.50950e-06
 Reference value :  2.51178e-06
 Reference value :  2.51549e-06
 Reference value :  2.53772e-06
 Reference value :  2.56095e-06
 Reference value :  2.60739e-06
 Reference value :  2.75010e-06
 Reference value :  2.75011e-06
 Reference value :  2.75013e-06
 Reference value :  2.75017e-06
 Reference value :  2.75021e-06
 Reference value :  2.75026e-06
 Reference value :  2.75032e-06
 Reference value :  2.75045e-06
 Reference value :  2.75062e-06
 Reference value :  2.75086e-06
 Reference value :  2.75127e-06
 Reference value :  2.75176e-06
 Reference value :  2.75284e-06
 Reference value :  2.75361e-06
 Reference value :  2.75417e-06
 Reference value :  2.75482e-06
 Reference value :  2.75540e-06
 Reference value :  2.75688e-06
 Reference value :  2.75869e-06
 Reference value :  2.76111e-06
 Reference value :  2.76290e-06
 Reference value :  2.76524e-06
 Reference value :  2.76852e-06
 Reference value :  2.78274e-06
 Reference value :  2.81854e-06
 Reference value :  2.91036e-06
 Reference value :  3.00001e-06
 Reference value :  3.00003e-06
 Reference value :  3.00007e-06
 Reference value :  3.00010e-06
 Reference value :  3.00011e-06
 Reference value :  3.00012e-06
 Reference value :  3.00016e-06
 Reference value :  3.00022e-06
 Reference value :  3.00052e-06
 Reference value :  3.00130e-06
 Reference value :  3.00176e-06
 Reference value :  3.00223e-06
 Reference value :  3.00276e-06
 Reference value :  3.00340e-06
 Reference value :  3.00457e-06
 Reference value :  3.00520e-06
 Reference value :  3.00581e-06
 Reference value :  3.00649e-06
 Reference value :  3.00718e-06
 Reference value :  3.00806e-06
 Reference value :  3.00908e-06
 Reference value :  3.01047e-06
 Reference value :  3.01147e-06
 Reference value :  3.01255e-06
 Reference value :  3.01356e-06
 Reference value :  3.01469e-06
 Reference value :  3.01544e-06
 Reference value :  3.01626e-06
 Reference value :  3.01735e-06
 Reference value :  3.01848e-06
 Reference value :  3.01953e-06
 Reference value :  3.02083e-06
 Reference value :  3.02220e-06
 Reference value :  3.02423e-06
 Reference value :  3.03206e-06
 Reference value :  3.04029e-06
 Reference value :  3.07848e-06
 Reference value :  3.10572e-06
 Reference value :  3.16020e-06
 Reference value :  3.22064e-06
 Reference value :  3.25010e-06
 Reference value :  3.25011e-06
 Reference value :  3.25017e-06
 Reference value :  3.25020e-06
 Reference value :  3.25021e-06
 Reference value :  3.25022e-06
 Reference value :  3.25026e-06
 Reference value :  3.25032e-06
 Reference value :  3.25045e-06
 Reference value :  3.25062e-06
 Reference value :  3.25086e-06
 Reference value :  3.25127e-06
 Reference value :  3.25176e-06
 Reference value :  3.25226e-06
 Reference value :  3.25284e-06
 Reference value :  3.25364e-06
 Reference value :  3.25421e-06
 Reference value :  3.25486e-06
 Reference value :  3.25548e-06
 Reference value :  3.25615e-06
 Reference value :  3.25712e-06
 Reference value :  3.25837e-06
 Reference value :  3.26006e-06
 Reference value :  3.26272e-06
 Reference value :  3.26630e-06
 Reference value :  3.27346e-06
 Reference value :  3.31643e-06
 Reference value :  3.48828e-06
 Reference value :  3.50001e-06
 Reference value :  3.50003e-06
 Reference value :  3.50010e-06
 Reference value :  3.50011e-06
 Reference value :  3.50012e-06
 Reference value :  3.50016e-06
 Reference value :  3.50022e-06
 Reference value :  3.50035e-06
 Reference value :  3.50052e-06
 Reference value :  3.50086e-06
 Reference value :  3.50130e-06
 Reference value :  3.50176e-06
 Reference value :  3.50221e-06
 Reference value :  3.50270e-06
 Reference value :  3.50331e-06
 Reference value :  3.50404e-06
 Reference value :  3.50485e-06
 Reference value :  3.50559e-06
 Reference value :  3.50674e-06
 Reference value :  3.50756e-06
 Reference value :  3.50850e-06
 Reference value :  3.50950e-06
 Reference value :  3.51063e-06
 Reference value :  3.51178e-06
 Reference value :  3.51547e-06
 Reference value :  3.51915e-06
 Reference value :  3.52562e-06
 Reference value :  3.56043e-06
 Reference value :  3.60629e-06
 Reference value :  3.75010e-06
 Reference value :  3.75011e-06
 Reference value :  3.75017e-06
 Reference value :  3.75020e-06
 Reference value :  3.75021e-06
 Reference value :  3.75022e-06
 Reference value :  3.75026e-06
 Reference value :  3.75032e-06
 Reference value :  3.75045e-06
 Reference value :  3.75062e-06
 Reference value :  3.75127e-06
 Reference value :  3.75226e-06
 Reference value :  3.75284e-06
 Reference value :  3.75361e-06
 Reference value :  3.75417e-06
 Reference value :  3.75482e-06
 Reference value :  3.75540e-06
 Reference value :  3.75688e-06
 Reference value :  3.75869e-06
 Reference value :  3.75991e-06
 Reference value :  3.76111e-06
 Reference value :  3.76290e-06
 Reference value :  3.76524e-06
 Reference value :  3.76852e-06
 Reference value :  3.77449e-06
 Reference value :  3.78275e-06
 Reference value :  3.81855e-06
 Reference value :  3.91037e-06
 Reference value :  4.00001e-06
 Reference value :  4.00007e-06
 Reference value :  4.00010e-06
 Reference value :  4.00011e-06
 Reference value :  4.00012e-06
 Reference value :  4.00022e-06
 Reference value :  4.00052e-06
 Reference value :  4.00086e-06
 Reference value :  4.00130e-06
 Reference value :  4.00176e-06
 Reference value :  4.00223e-06
 Reference value :  4.00276e-06
 Reference value :  4.00340e-06
 Reference value :  4.00402e-06
 Reference value :  4.00457e-06
 Reference value :  4.00520e-06
 Reference value :  4.00581e-06
 Reference value :  4.00649e-06
 Reference value :  4.00718e-06
 Reference value :  4.00806e-06
 Reference value :  4.00908e-06
 Reference value :  4.01047e-06
 Reference value :  4.01147e-06
 Reference value :  4.01255e-06
 Reference value :  4.01387e-06
 Reference value :  4.01515e-06
 Reference value :  4.01641e-06
 Reference value :  4.01767e-06
 Reference value :  4.01882e-06
 Reference value :  4.02004e-06
 Reference value :  4.02140e-06
 Reference value :  4.02303e-06
 Reference value :  4.02803e-06
 Reference value :  4.03342e-06
 Reference value :  4.04195e-06
 Reference value :  4.05526e-06
 Reference value :  4.06835e-06
 Reference value :  4.08212e-06
 Reference value :  4.09631e-06
 Reference value :  4.10645e-06
 Reference value :  4.13285e-06
 Reference value :  4.18187e-06
 Reference value :  4.23408e-06
 Reference value :  4.25011e-06
 Reference value :  4.25017e-06
 Reference value :  4.25020e-06
 Reference value :  4.25021e-06
 Reference value :  4.25025e-06
 Reference value :  4.25032e-06
 Reference value :  4.25040e-06
 Reference value :  4.25058e-06
 Reference value :  4.25105e-06
 Reference value :  4.25211e-06
 Reference value :  4.25266e-06
 Reference value :  4.25339e-06
 Reference value :  4.25422e-06
 Reference value :  4.25481e-06
 Reference value :  4.25549e-06
 Reference value :  4.25616e-06
 Reference value :  4.25700e-06
 Reference value :  4.25968e-06
 Reference value :  4.26548e-06
 Reference value :  4.28273e-06
 Reference value :  4.33583e-06
 Reference value :  4.50000e-06
 Reference value :  4.50003e-06
 Reference value :  4.50007e-06
 Reference value :  4.50010e-06
 Reference value :  4.50012e-06
 Reference value :  4.50022e-06
 Reference value :  4.50035e-06
 Reference value :  4.50060e-06
 Reference value :  4.50097e-06
 Reference value :  4.50156e-06
 Reference value :  4.50212e-06
 Reference value :  4.50257e-06
 Reference value :  4.50312e-06
 Reference value :  4.50371e-06
 Reference value :  4.50444e-06
 Reference value :  4.50512e-06
 Reference value :  4.50692e-06
 Reference value :  4.50765e-06
 Reference value :  4.50849e-06
 Reference value :  4.50953e-06
 Reference value :  4.51062e-06
 Reference value :  4.51167e-06
 Reference value :  4.51295e-06
 Reference value :  4.51698e-06
 Reference value :  4.52072e-06
 Reference value :  4.52738e-06
 Reference value :  4.53889e-06
 Reference value :  4.55826e-06
 Reference value :  4.59701e-06
 Reference value :  4.75010e-06
 Reference value :  4.75011e-06
 Reference value :  4.75013e-06
 Reference value :  4.75017e-06
 Reference value :  4.75020e-06
 Reference value :  4.75021e-06
 Reference value :  4.75025e-06
 Reference value :  4.75032e-06
 Reference value :  4.75040e-06
 Reference value :  4.75058e-06
 Reference value :  4.75078e-06
 Reference value :  4.75105e-06
 Reference value :  4.75157e-06
 Reference value :  4.75211e-06
 Reference value :  4.75266e-06
 Reference value :  4.75339e-06
 Reference value :  4.75421e-06
 Reference value :  4.75480e-06
 Reference value :  4.75624e-06
 Reference value :  4.75710e-06
 Reference value :  4.75899e-06
 Reference value :  4.76013e-06
 Reference value :  4.76139e-06
 Reference value :  4.76334e-06
 Reference value :  4.76916e-06
 Reference value :  4.78369e-06
 Reference value :  4.82050e-06
 Reference value :  4.91349e-06
 Reference value :  5.00001e-06
 Reference value :  5.00007e-06
 Reference value :  5.00010e-06
 Reference value :  5.00011e-06
 Reference value :  5.00012e-06
 Reference value :  5.00016e-06
 Reference value :  5.00022e-06
 Reference value :  5.00035e-06
 Reference value :  5.00060e-06
 Reference value :  5.00097e-06
 Reference value :  5.00156e-06
 Reference value :  5.00211e-06
 Reference value :  5.00259e-06
 Reference value :  5.00315e-06
 Reference value :  5.00374e-06
 Reference value :  5.00498e-06
 Reference value :  5.00559e-06
 Reference value :  5.00610e-06
 Reference value :  5.00669e-06
 Reference value :  5.00742e-06
 Reference value :  5.00824e-06
 Reference value :  5.00923e-06
 Reference value :  5.01078e-06
 Reference value :  5.01176e-06
 Reference value :  5.01291e-06
 Reference value :  5.01415e-06
 Reference value :  5.01512e-06
 Reference value :  5.01609e-06
 Reference value :  5.01728e-06
 Reference value :  5.01837e-06
 Reference value :  5.01958e-06
 Reference value :  5.02099e-06
 Reference value :  5.02456e-06
 Reference value :  5.03123e-06
 Reference value :  5.03895e-06
 Reference value :  5.04800e-06
 Reference value :  5.07309e-06
 Reference value :  5.10446e-06
 Reference value :  5.12504e-06
 Reference value :  5.15957e-06
 Reference value :  5.21560e-06
 Reference value :  5.25011e-06
 Reference value :  5.25013e-06
 Reference value :  5.25017e-06
 Reference value :  5.25021e-06
 Reference value :  5.25022e-06
 Reference value :  5.25025e-06
 Reference value :  5.25040e-06
 Reference value :  5.25075e-06
 Reference value :  5.25152e-06
 Reference value :  5.25208e-06
 Reference value :  5.25259e-06
 Reference value :  5.25336e-06
 Reference value :  5.25418e-06
 Reference value :  5.25478e-06
 Reference value :  5.25547e-06
 Reference value :  5.25613e-06
 Reference value :  5.25697e-06
 Reference value :  5.25787e-06
 Reference value :  5.26190e-06
 Reference value :  5.27115e-06
 Reference value :  5.29974e-06
 Reference value :  5.38901e-06
 Reference value :  5.50000e-06
 Reference value :  5.50003e-06
 Reference value :  5.50010e-06
 Reference value :  5.50012e-06
 Reference value :  5.50016e-06
 Reference value :  5.50035e-06
 Reference value :  5.50060e-06
 Reference value :  5.50097e-06
 Reference value :  5.50156e-06
 Reference value :  5.50212e-06
 Reference value :  5.50257e-06
 Reference value :  5.50371e-06
 Reference value :  5.50443e-06
 Reference value :  5.50512e-06
 Reference value :  5.50589e-06
 Reference value :  5.50691e-06
 Reference value :  5.50764e-06
 Reference value :  5.50848e-06
 Reference value :  5.50952e-06
 Reference value :  5.51061e-06
 Reference value :  5.51166e-06
 Reference value :  5.51293e-06
 Reference value :  5.51697e-06
 Reference value :  5.52741e-06
 Reference value :  5.55854e-06
 Reference value :  5.67576e-06
 Reference value :  5.75010e-06
 Reference value :  5.75011e-06
 Reference value :  5.75017e-06
 Reference value :  5.75021e-06
 Reference value :  5.75022e-06
 Reference value :  5.75025e-06
 Reference value :  5.75032e-06
 Reference value :  5.75058e-06
 Reference value :  5.75078e-06
 Reference value :  5.75105e-06
 Reference value :  5.75157e-06
 Reference value :  5.75211e-06
 Reference value :  5.75266e-06
 Reference value :  5.75339e-06
 Reference value :  5.75421e-06
 Reference value :  5.75480e-06
 Reference value :  5.75624e-06
 Reference value :  5.75711e-06
 Reference value :  5.75805e-06
 Reference value :  5.75900e-06
 Reference value :  5.76014e-06
 Reference value :  5.76335e-06
 Reference value :  5.76919e-06
 Reference value :  5.78377e-06
 Reference value :  5.82070e-06
 Reference value :  5.85649e-06
 Reference value :  5.91397e-06
 Reference value :  6.00000e-06
 Reference value :  6.00001e-06
 Reference value :  6.00003e-06
 Reference value :  6.00007e-06
 Reference value :  6.00010e-06
 Reference value :  6.00012e-06
 Reference value :  6.00022e-06
 Reference value :  6.00035e-06
 Reference value :  6.00060e-06
 Reference value :  6.00097e-06
 Reference value :  6.00156e-06
 Reference value :  6.00211e-06
 Reference value :  6.00259e-06
 Reference value :  6.00315e-06
 Reference value :  6.00374e-06
 Reference value :  6.00442e-06
 Reference value :  6.00498e-06
 Reference value :  6.00559e-06
 Reference value :  6.00610e-06
 Reference value :  6.00669e-06
 Reference value :  6.00742e-06
 Reference value :  6.00923e-06
 Reference value :  6.01078e-06
 Reference value :  6.01176e-06
 Reference value :  6.01291e-06
 Reference value :  6.01415e-06
 Reference value :  6.01512e-06
 Reference value :  6.01607e-06
 Reference value :  6.01725e-06
 Reference value :  6.01835e-06
 Reference value :  6.01955e-06
 Reference value :  6.02221e-06
 Reference value :  6.02663e-06
 Reference value :  6.03803e-06
 Reference value :  6.05596e-06
 Reference value :  6.09320e-06
 Reference value :  6.16886e-06
 Reference value :  6.21450e-06
 Reference value :  6.25011e-06
 Reference value :  6.25017e-06
 Reference value :  6.25020e-06
 Reference value :  6.25021e-06
 Reference value :  6.25022e-06
 Reference value :  6.25025e-06
 Reference value :  6.25040e-06
 Reference value :  6.25075e-06
 Reference value :  6.25103e-06
 Reference value :  6.25152e-06
 Reference value :  6.25208e-06
 Reference value :  6.25258e-06
 Reference value :  6.25336e-06
 Reference value :  6.25418e-06
 Reference value :  6.25478e-06
 Reference value :  6.25547e-06
 Reference value :  6.25697e-06
 Reference value :  6.25787e-06
 Reference value :  6.25963e-06
 Reference value :  6.26535e-06
 Reference value :  6.27115e-06
 Reference value :  6.29963e-06
 Reference value :  6.33207e-06
 Reference value :  6.38821e-06
 Reference value :  6.48700e-06
 Reference value :  6.50000e-06
 Reference value :  6.50001e-06
 Reference value :  6.50007e-06
 Reference value :  6.50010e-06
 Reference value :  6.50011e-06
 Reference value :  6.50012e-06
 Reference value :  6.50022e-06
 Reference value :  6.50035e-06
 Reference value :  6.50060e-06
 Reference value :  6.50097e-06
 Reference value :  6.50156e-06
 Reference value :  6.50212e-06
 Reference value :  6.50257e-06
 Reference value :  6.50312e-06
 Reference value :  6.50371e-06
 Reference value :  6.50443e-06
 Reference value :  6.50512e-06
 Reference value :  6.50589e-06
 Reference value :  6.50691e-06
 Reference value :  6.50764e-06
 Reference value :  6.50952e-06
 Reference value :  6.51060e-06
 Reference value :  6.51166e-06
 Reference value :  6.51293e-06
 Reference value :  6.51696e-06
 Reference value :  6.52736e-06
 Reference value :  6.55833e-06
 Reference value :  6.67493e-06
 Reference value :  6.75011e-06
 Reference value :  6.75013e-06
 Reference value :  6.75020e-06
 Reference value :  6.75022e-06
 Reference value :  6.75032e-06
 Reference value :  6.75058e-06
 Reference value :  6.75105e-06
 Reference value :  6.75157e-06
 Reference value :  6.75210e-06
 Reference value :  6.75339e-06
 Reference value :  6.75421e-06
 Reference value :  6.75480e-06
 Reference value :  6.75549e-06
 Reference value :  6.75624e-06
 Reference value :  6.75711e-06
 Reference value :  6.75900e-06
 Reference value :  6.76014e-06
 Reference value :  6.76140e-06
 Reference value :  6.76335e-06
 Reference value :  6.76919e-06
 Reference value :  6.78376e-06
 Reference value :  6.82065e-06
 Reference value :  6.91380e-06
 Reference value :  7.00001e-06
 Reference value :  7.00007e-06
 Reference value :  7.00010e-06
 Reference value :  7.00012e-06
 Reference value :  7.00022e-06
 Reference value :  7.00035e-06
 Reference value :  7.00060e-06
 Reference value :  7.00097e-06
 Reference value :  7.00156e-06
 Reference value :  7.00211e-06
 Reference value :  7.00259e-06
 Reference value :  7.00315e-06
 Reference value :  7.00374e-06
 Reference value :  7.00442e-06
 Reference value :  7.00498e-06
 Reference value :  7.00559e-06
 Reference value :  7.00610e-06
 Reference value :  7.00669e-06
 Reference value :  7.00824e-06
 Reference value :  7.01078e-06
 Reference value :  7.01177e-06
 Reference value :  7.01292e-06
 Reference value :  7.01415e-06
 Reference value :  7.01512e-06
 Reference value :  7.01724e-06
 Reference value :  7.01830e-06
 Reference value :  7.01950e-06
 Reference value :  7.02206e-06
 Reference value :  7.02408e-06
 Reference value :  7.02618e-06
 Reference value :  7.03536e-06
 Reference value :  7.06196e-06
 Reference value :  7.13042e-06
 Reference value :  7.25010e-06
 Reference value :  7.25011e-06
 Reference value :  7.25013e-06
 Reference value :  7.25020e-06
 Reference value :  7.25022e-06
 Reference value :  7.25025e-06
 Reference value :  7.25032e-06
 Reference value :  7.25040e-06
 Reference value :  7.25058e-06
 Reference value :  7.25075e-06
 Reference value :  7.25103e-06
 Reference value :  7.25152e-06
 Reference value :  7.25208e-06
 Reference value :  7.25258e-06
 Reference value :  7.25336e-06
 Reference value :  7.25418e-06
 Reference value :  7.25478e-06
 Reference value :  7.25547e-06
 Reference value :  7.25613e-06
 Reference value :  7.25697e-06
 Reference value :  7.25963e-06
 Reference value :  7.26190e-06
 Reference value :  7.27115e-06
 Reference value :  7.29955e-06
 Reference value :  7.33185e-06
 Reference value :  7.48591e-06
 Reference value :  7.50000e-06
 Reference value :  7.50001e-06
 Reference value :  7.50003e-06
 Reference value :  7.50007e-06
 Reference value :  7.50010e-06
 Reference value :  7.50011e-06
 Reference value :  7.50016e-06
 Reference value :  7.50022e-06
 Reference value :  7.50035e-06
 Reference value :  7.50060e-06
 Reference value :  7.50097e-06
 Reference value :  7.50156e-06
 Reference value :  7.50212e-06
 Reference value :  7.50257e-06
 Reference value :  7.50312e-06
 Reference value :  7.50371e-06
 Reference value :  7.50443e-06
 Reference value :  7.50512e-06
 Reference value :  7.50589e-06
 Reference value :  7.50691e-06
 Reference value :  7.50764e-06
 Reference value :  7.50848e-06
 Reference value :  7.50952e-06
 Reference value :  7.51166e-06
 Reference value :  7.51292e-06
 Reference value :  7.51695e-06
 Reference value :  7.52067e-06
 Reference value :  7.53881e-06
 Reference value :  7.59685e-06
 Reference value :  7.67424e-06
 Reference value :  7.75010e-06
 Reference value :  7.75011e-06
 Reference value :  7.75013e-06
 Reference value :  7.75017e-06
 Reference value :  7.75020e-06
 Reference value :  7.75022e-06
 Reference value :  7.75025e-06
 Reference value :  7.75040e-06
 Reference value :  7.75078e-06
 Reference value :  7.75105e-06
 Reference value :  7.75157e-06
 Reference value :  7.75210e-06
 Reference value :  7.75266e-06
 Reference value :  7.75421e-06
 Reference value :  7.75480e-06
 Reference value :  7.75549e-06
 Reference value :  7.75624e-06
 Reference value :  7.75711e-06
 Reference value :  7.75805e-06
 Reference value :  7.75900e-06
 Reference value :  7.76014e-06
 Reference value :  7.76140e-06
 Reference value :  7.76335e-06
 Reference value :  7.76560e-06
 Reference value :  7.77520e-06
 Reference value :  7.78377e-06
 Reference value :  7.82068e-06
 Reference value :  7.85646e-06
 Reference value :  7.91391e-06
 Reference value :  8.00000e-06
 Reference value :  8.00003e-06
 Reference value :  8.00010e-06
 Reference value :  8.00011e-06
 Reference value :  8.00012e-06
 Reference value :  8.00016e-06
 Reference value :  8.00022e-06
 Reference value :  8.00035e-06
 Reference value :  8.00060e-06
 Reference value :  8.00097e-06
 Reference value :  8.00156e-06
 Reference value :  8.00211e-06
 Reference value :  8.00259e-06
 Reference value :  8.00315e-06
 Reference value :  8.00374e-06
 Reference value :  8.00442e-06
 Reference value :  8.00497e-06
 Reference value :  8.00558e-06
 Reference value :  8.00609e-06
 Reference value :  8.00669e-06
 Reference value :  8.00741e-06
 Reference value :  8.00823e-06
 Reference value :  8.00907e-06
 Reference value :  8.00996e-06
 Reference value :  8.01078e-06
 Reference value :  8.01176e-06
 Reference value :  8.01280e-06
 Reference value :  8.01381e-06
 Reference value :  8.01840e-06
 Reference value :  8.02434e-06
 Reference value :  8.04124e-06
 Reference value :  8.08942e-06
 Reference value :  8.16723e-06
 Reference value :  8.22024e-06
 Reference value :  8.25011e-06
 Reference value :  8.25013e-06
 Reference value :  8.25017e-06
 Reference value :  8.25020e-06
 Reference value :  8.25021e-06
 Reference value :  8.25022e-06
 Reference value :  8.25025e-06
 Reference value :  8.25044e-06
 Reference value :  8.25061e-06
 Reference value :  8.25081e-06
 Reference value :  8.25118e-06
 Reference value :  8.25166e-06
 Reference value :  8.25218e-06
 Reference value :  8.25274e-06
 Reference value :  8.25349e-06
 Reference value :  8.25438e-06
 Reference value :  8.25531e-06
 Reference value :  8.25627e-06
 Reference value :  8.25731e-06
 Reference value :  8.25893e-06
 Reference value :  8.26056e-06
 Reference value :  8.26350e-06
 Reference value :  8.26702e-06
 Reference value :  8.28524e-06
 Reference value :  8.30451e-06
 Reference value :  8.42015e-06
 Reference value :  8.50001e-06
 Reference value :  8.50007e-06
 Reference value :  8.50011e-06
 Reference value :  8.50012e-06
 Reference value :  8.50022e-06
 Reference value :  8.50060e-06
 Reference value :  8.50098e-06
 Reference value :  8.50151e-06
 Reference value :  8.50209e-06
 Reference value :  8.50256e-06
 Reference value :  8.50374e-06
 Reference value :  8.50444e-06
 Reference value :  8.50513e-06
 Reference value :  8.50569e-06
 Reference value :  8.50630e-06
 Reference value :  8.50703e-06
 Reference value :  8.50937e-06
 Reference value :  8.51475e-06
 Reference value :  8.52127e-06
 Reference value :  8.52719e-06
 Reference value :  8.53206e-06
 Reference value :  8.53609e-06
 Reference value :  8.54035e-06
 Reference value :  8.55300e-06
 Reference value :  8.57797e-06
 Reference value :  8.60031e-06
 Reference value :  8.63418e-06
 Reference value :  8.68697e-06
 Reference value :  8.75010e-06
 Reference value :  8.75011e-06
 Reference value :  8.75017e-06
 Reference value :  8.75021e-06
 Reference value :  8.75022e-06
 Reference value :  8.75032e-06
 Reference value :  8.75062e-06
 Reference value :  8.75127e-06
 Reference value :  8.75176e-06
 Reference value :  8.75226e-06
 Reference value :  8.75364e-06
 Reference value :  8.75421e-06
 Reference value :  8.75486e-06
 Reference value :  8.75547e-06
 Reference value :  8.75613e-06
 Reference value :  8.75708e-06
 Reference value :  8.75829e-06
 Reference value :  8.75998e-06
 Reference value :  8.76609e-06
 Reference value :  8.77312e-06
 Reference value :  8.78717e-06
 Reference value :  8.81526e-06
 Reference value :  8.87146e-06
 Reference value :  8.98384e-06
 Reference value :  9.00000e-06
No. of Data Rows : 1340
ngspice-44 done
