
Note: Compatibility modes selected: hs a


Circuit: ** sch_path: /home/ece/cace/sar-adc-using-sky130-pdk/runs/run_2025-09-12_21-09-11/parameters/dnl/run_2/sar_output_dnl.sch

option SCALE: Scale is set to 1e-06 for instance and model parameters
option SCALE: Scale is set to 1e-06 for instance and model parameters
option SCALE: Scale is set to 1e-06 for instance and model parameters
option SCALE: Scale is set to 1e-06 for instance and model parameters
Doing analysis at TEMP = 27.000000 and TNOM = 27.000000

Using KLU as Direct Linear Solver
Operating point simulation skipped by 'uic',
  now using transient initial conditions.
 Reference value :  1.00000e-12
 Reference value :  1.19600e-12
 Reference value :  3.26745e-12
 Reference value :  1.39261e-11
 Reference value :  1.00000e-10
 Reference value :  1.39143e-10
 Reference value :  4.52288e-10
 Reference value :  9.82113e-10
 Reference value :  2.50460e-09
 Reference value :  4.07537e-09
 Reference value :  5.07076e-09
 Reference value :  6.76197e-09
 Reference value :  8.30598e-09
 Reference value :  1.15350e-08
 Reference value :  1.95917e-08
 Reference value :  2.61385e-08
 Reference value :  3.17757e-08
 Reference value :  7.43237e-08
 Reference value :  2.50110e-07
 Reference value :  2.50200e-07
 Reference value :  2.50254e-07
 Reference value :  2.50528e-07
 Reference value :  2.51270e-07
 Reference value :  2.52082e-07
 Reference value :  2.53199e-07
 Reference value :  2.54206e-07
 Reference value :  2.56177e-07
 Reference value :  2.60986e-07
 Reference value :  2.96060e-07
 Reference value :  5.00000e-07
 Reference value :  5.00070e-07
 Reference value :  5.00124e-07
 Reference value :  5.00338e-07
 Reference value :  5.00827e-07
 Reference value :  5.01532e-07
 Reference value :  5.02818e-07
 Reference value :  5.04630e-07
 Reference value :  5.06443e-07
 Reference value :  5.08785e-07
 Reference value :  5.11229e-07
 Reference value :  5.12471e-07
 Reference value :  5.15541e-07
 Reference value :  5.20636e-07
 Reference value :  5.49766e-07
 Reference value :  7.50100e-07
 Reference value :  7.50130e-07
 Reference value :  7.50208e-07
 Reference value :  7.50320e-07
 Reference value :  7.50688e-07
 Reference value :  7.51397e-07
 Reference value :  7.52295e-07
 Reference value :  7.53446e-07
 Reference value :  7.54484e-07
 Reference value :  7.55770e-07
 Reference value :  7.57453e-07
 Reference value :  7.59544e-07
 Reference value :  7.67041e-07
 Reference value :  8.72995e-07
 Reference value :  1.00001e-06
 Reference value :  1.00010e-06
 Reference value :  1.00022e-06
 Reference value :  1.00083e-06
 Reference value :  1.00158e-06
 Reference value :  1.00242e-06
 Reference value :  1.00342e-06
 Reference value :  1.00389e-06
 Reference value :  1.00484e-06
 Reference value :  1.00663e-06
 Reference value :  1.00849e-06
 Reference value :  1.01018e-06
 Reference value :  1.01192e-06
 Reference value :  1.01353e-06
 Reference value :  1.01441e-06
 Reference value :  1.01528e-06
 Reference value :  1.01624e-06
 Reference value :  1.01880e-06
 Reference value :  1.02371e-06
 Reference value :  1.03740e-06
 Reference value :  1.14243e-06
 Reference value :  1.19985e-06
 Reference value :  1.25010e-06
 Reference value :  1.25013e-06
 Reference value :  1.25020e-06
 Reference value :  1.25022e-06
 Reference value :  1.25032e-06
 Reference value :  1.25045e-06
 Reference value :  1.25098e-06
 Reference value :  1.25230e-06
 Reference value :  1.25345e-06
 Reference value :  1.25528e-06
 Reference value :  1.25895e-06
 Reference value :  1.31681e-06
 Reference value :  1.50001e-06
 Reference value :  1.50010e-06
 Reference value :  1.50016e-06
 Reference value :  1.50034e-06
 Reference value :  1.50083e-06
 Reference value :  1.50154e-06
 Reference value :  1.50235e-06
 Reference value :  1.50282e-06
 Reference value :  1.50388e-06
 Reference value :  1.50464e-06
 Reference value :  1.50598e-06
 Reference value :  1.50749e-06
 Reference value :  1.51030e-06
 Reference value :  1.51688e-06
 Reference value :  1.65030e-06
 Reference value :  1.75017e-06
 Reference value :  1.75022e-06
 Reference value :  1.75045e-06
 Reference value :  1.75140e-06
 Reference value :  1.75299e-06
 Reference value :  1.75397e-06
 Reference value :  1.75502e-06
 Reference value :  1.75580e-06
 Reference value :  1.75837e-06
 Reference value :  1.76108e-06
 Reference value :  1.79031e-06
 Reference value :  2.00001e-06
 Reference value :  2.00010e-06
 Reference value :  2.00022e-06
 Reference value :  2.00083e-06
 Reference value :  2.00158e-06
 Reference value :  2.00290e-06
 Reference value :  2.00440e-06
 Reference value :  2.00593e-06
 Reference value :  2.00758e-06
 Reference value :  2.01017e-06
 Reference value :  2.01191e-06
 Reference value :  2.01353e-06
 Reference value :  2.01528e-06
 Reference value :  2.01722e-06
 Reference value :  2.02367e-06
 Reference value :  2.11608e-06
 Reference value :  2.25013e-06
 Reference value :  2.25021e-06
 Reference value :  2.25045e-06
 Reference value :  2.25140e-06
 Reference value :  2.25299e-06
 Reference value :  2.25397e-06
 Reference value :  2.25601e-06
 Reference value :  2.26174e-06
 Reference value :  2.31676e-06
 Reference value :  2.50000e-06
 Reference value :  2.50007e-06
 Reference value :  2.50012e-06
 Reference value :  2.50022e-06
 Reference value :  2.50052e-06
 Reference value :  2.50119e-06
 Reference value :  2.50154e-06
 Reference value :  2.50195e-06
 Reference value :  2.50282e-06
 Reference value :  2.50388e-06
 Reference value :  2.50536e-06
 Reference value :  2.50598e-06
 Reference value :  2.50749e-06
 Reference value :  2.50924e-06
 Reference value :  2.51146e-06
 Reference value :  2.53219e-06
 Reference value :  2.75010e-06
 Reference value :  2.75013e-06
 Reference value :  2.75020e-06
 Reference value :  2.75026e-06
 Reference value :  2.75069e-06
 Reference value :  2.75140e-06
 Reference value :  2.75299e-06
 Reference value :  2.75344e-06
 Reference value :  2.75448e-06
 Reference value :  2.75579e-06
 Reference value :  2.75836e-06
 Reference value :  2.76105e-06
 Reference value :  2.78996e-06
 Reference value :  3.00001e-06
 Reference value :  3.00007e-06
 Reference value :  3.00012e-06
 Reference value :  3.00034e-06
 Reference value :  3.00158e-06
 Reference value :  3.00290e-06
 Reference value :  3.00390e-06
 Reference value :  3.00484e-06
 Reference value :  3.00593e-06
 Reference value :  3.00758e-06
 Reference value :  3.00928e-06
 Reference value :  3.01112e-06
 Reference value :  3.01271e-06
 Reference value :  3.01446e-06
 Reference value :  3.01634e-06
 Reference value :  3.02085e-06
 Reference value :  3.08891e-06
 Reference value :  3.18091e-06
 Reference value :  3.25011e-06
 Reference value :  3.25020e-06
 Reference value :  3.25032e-06
 Reference value :  3.25098e-06
 Reference value :  3.25186e-06
 Reference value :  3.25345e-06
 Reference value :  3.25462e-06
 Reference value :  3.25747e-06
 Reference value :  3.27274e-06
 Reference value :  3.49271e-06
 Reference value :  3.50007e-06
 Reference value :  3.50016e-06
 Reference value :  3.50083e-06
 Reference value :  3.50154e-06
 Reference value :  3.50282e-06
 Reference value :  3.50464e-06
 Reference value :  3.50598e-06
 Reference value :  3.50839e-06
 Reference value :  3.51363e-06
 Reference value :  3.58076e-06
 Reference value :  3.75013e-06
 Reference value :  3.75022e-06
 Reference value :  3.75098e-06
 Reference value :  3.75186e-06
 Reference value :  3.75344e-06
 Reference value :  3.75502e-06
 Reference value :  3.75660e-06
 Reference value :  3.75963e-06
 Reference value :  3.76736e-06
 Reference value :  3.87912e-06
 Reference value :  4.00001e-06
 Reference value :  4.00010e-06
 Reference value :  4.00016e-06
 Reference value :  4.00052e-06
 Reference value :  4.00119e-06
 Reference value :  4.00201e-06
 Reference value :  4.00290e-06
 Reference value :  4.00390e-06
 Reference value :  4.00484e-06
 Reference value :  4.00593e-06
 Reference value :  4.00758e-06
 Reference value :  4.00928e-06
 Reference value :  4.01016e-06
 Reference value :  4.01191e-06
 Reference value :  4.01355e-06
 Reference value :  4.01533e-06
 Reference value :  4.01733e-06
 Reference value :  4.02079e-06
 Reference value :  4.03894e-06
 Reference value :  4.04793e-06
 Reference value :  4.05636e-06
 Reference value :  4.06373e-06
 Reference value :  4.06827e-06
 Reference value :  4.07248e-06
 Reference value :  4.09544e-06
 Reference value :  4.15918e-06
 Reference value :  4.25010e-06
 Reference value :  4.25013e-06
 Reference value :  4.25020e-06
 Reference value :  4.25026e-06
 Reference value :  4.25045e-06
 Reference value :  4.25098e-06
 Reference value :  4.25140e-06
 Reference value :  4.25229e-06
 Reference value :  4.25299e-06
 Reference value :  4.25345e-06
 Reference value :  4.25460e-06
 Reference value :  4.25741e-06
 Reference value :  4.26520e-06
 Reference value :  4.31538e-06
 Reference value :  4.50000e-06
 Reference value :  4.50003e-06
 Reference value :  4.50010e-06
 Reference value :  4.50016e-06
 Reference value :  4.50034e-06
 Reference value :  4.50083e-06
 Reference value :  4.50158e-06
 Reference value :  4.50242e-06
 Reference value :  4.50290e-06
 Reference value :  4.50399e-06
 Reference value :  4.50552e-06
 Reference value :  4.50616e-06
 Reference value :  4.50771e-06
 Reference value :  4.50956e-06
 Reference value :  4.51553e-06
 Reference value :  4.54778e-06
 Reference value :  4.75010e-06
 Reference value :  4.75017e-06
 Reference value :  4.75032e-06
 Reference value :  4.75140e-06
 Reference value :  4.75299e-06
 Reference value :  4.75397e-06
 Reference value :  4.75502e-06
 Reference value :  4.75822e-06
 Reference value :  4.78227e-06
 Reference value :  5.00000e-06
 Reference value :  5.00007e-06
 Reference value :  5.00012e-06
 Reference value :  5.00052e-06
 Reference value :  5.00158e-06
 Reference value :  5.00289e-06
 Reference value :  5.00396e-06
 Reference value :  5.00500e-06
 Reference value :  5.00709e-06
 Reference value :  5.00997e-06
 Reference value :  5.01120e-06
 Reference value :  5.01323e-06
 Reference value :  5.01524e-06
 Reference value :  5.01737e-06
 Reference value :  5.02393e-06
 Reference value :  5.03623e-06
 Reference value :  5.04572e-06
 Reference value :  5.06919e-06
 Reference value :  5.07736e-06
 Reference value :  5.09188e-06
 Reference value :  5.10548e-06
 Reference value :  5.17285e-06
 Reference value :  5.24106e-06
 Reference value :  5.25013e-06
 Reference value :  5.25021e-06
 Reference value :  5.25045e-06
 Reference value :  5.25140e-06
 Reference value :  5.25299e-06
 Reference value :  5.25394e-06
 Reference value :  5.25595e-06
 Reference value :  5.26147e-06
 Reference value :  5.31339e-06
 Reference value :  5.50001e-06
 Reference value :  5.50010e-06
 Reference value :  5.50016e-06
 Reference value :  5.50052e-06
 Reference value :  5.50154e-06
 Reference value :  5.50282e-06
 Reference value :  5.50464e-06
 Reference value :  5.50598e-06
 Reference value :  5.50839e-06
 Reference value :  5.51028e-06
 Reference value :  5.52223e-06
 Reference value :  5.75010e-06
 Reference value :  5.75017e-06
 Reference value :  5.75026e-06
 Reference value :  5.75069e-06
 Reference value :  5.75140e-06
 Reference value :  5.75299e-06
 Reference value :  5.75397e-06
 Reference value :  5.75579e-06
 Reference value :  5.75836e-06
 Reference value :  5.76105e-06
 Reference value :  5.78981e-06
 Reference value :  6.00001e-06
 Reference value :  6.00010e-06
 Reference value :  6.00022e-06
 Reference value :  6.00083e-06
 Reference value :  6.00201e-06
 Reference value :  6.00290e-06
 Reference value :  6.00390e-06
 Reference value :  6.00484e-06
 Reference value :  6.00758e-06
 Reference value :  6.01016e-06
 Reference value :  6.01188e-06
 Reference value :  6.01348e-06
 Reference value :  6.01627e-06
 Reference value :  6.01875e-06
 Reference value :  6.03082e-06
 Reference value :  6.05542e-06
 Reference value :  6.13331e-06
 Reference value :  6.25011e-06
 Reference value :  6.25021e-06
 Reference value :  6.25069e-06
 Reference value :  6.25186e-06
 Reference value :  6.25344e-06
 Reference value :  6.25527e-06
 Reference value :  6.25894e-06
 Reference value :  6.28714e-06
 Reference value :  6.44864e-06
 Reference value :  6.50000e-06
 Reference value :  6.50007e-06
 Reference value :  6.50016e-06
 Reference value :  6.50052e-06
 Reference value :  6.50119e-06
 Reference value :  6.50157e-06
 Reference value :  6.50240e-06
 Reference value :  6.50289e-06
 Reference value :  6.50473e-06
 Reference value :  6.50614e-06
 Reference value :  6.50770e-06
 Reference value :  6.51090e-06
 Reference value :  6.52742e-06
 Reference value :  6.74218e-06
 Reference value :  6.75017e-06
 Reference value :  6.75026e-06
 Reference value :  6.75069e-06
 Reference value :  6.75139e-06
 Reference value :  6.75299e-06
 Reference value :  6.75344e-06
 Reference value :  6.75448e-06
 Reference value :  6.75579e-06
 Reference value :  6.76357e-06
 Reference value :  6.95618e-06
 Reference value :  7.00010e-06
 Reference value :  7.00034e-06
 Reference value :  7.00119e-06
 Reference value :  7.00242e-06
 Reference value :  7.00341e-06
 Reference value :  7.00500e-06
 Reference value :  7.00847e-06
 Reference value :  7.01120e-06
 Reference value :  7.01322e-06
 Reference value :  7.01524e-06
 Reference value :  7.01737e-06
 Reference value :  7.02390e-06
 Reference value :  7.03422e-06
 Reference value :  7.04234e-06
 Reference value :  7.06570e-06
 Reference value :  7.12747e-06
 Reference value :  7.25011e-06
 Reference value :  7.25020e-06
 Reference value :  7.25032e-06
 Reference value :  7.25098e-06
 Reference value :  7.25186e-06
 Reference value :  7.25299e-06
 Reference value :  7.25394e-06
 Reference value :  7.25595e-06
 Reference value :  7.27190e-06
 Reference value :  7.50000e-06
 Reference value :  7.50007e-06
 Reference value :  7.50012e-06
 Reference value :  7.50052e-06
 Reference value :  7.50154e-06
 Reference value :  7.50282e-06
 Reference value :  7.50464e-06
 Reference value :  7.50598e-06
 Reference value :  7.50749e-06
 Reference value :  7.51028e-06
 Reference value :  7.52215e-06
 Reference value :  7.64272e-06
 Reference value :  7.75017e-06
 Reference value :  7.75032e-06
 Reference value :  7.75139e-06
 Reference value :  7.75298e-06
 Reference value :  7.75396e-06
 Reference value :  7.75501e-06
 Reference value :  7.75660e-06
 Reference value :  7.75962e-06
 Reference value :  7.77474e-06
 Reference value :  7.99694e-06
 Reference value :  8.00003e-06
 Reference value :  8.00010e-06
 Reference value :  8.00016e-06
 Reference value :  8.00034e-06
 Reference value :  8.00119e-06
 Reference value :  8.00242e-06
 Reference value :  8.00342e-06
 Reference value :  8.00440e-06
 Reference value :  8.00534e-06
 Reference value :  8.00743e-06
 Reference value :  8.00902e-06
 Reference value :  8.01283e-06
 Reference value :  8.01457e-06
 Reference value :  8.02445e-06
 Reference value :  8.06486e-06
 Reference value :  8.23716e-06
 Reference value :  8.25013e-06
 Reference value :  8.25021e-06
 Reference value :  8.25032e-06
 Reference value :  8.25099e-06
 Reference value :  8.25186e-06
 Reference value :  8.25298e-06
 Reference value :  8.25535e-06
 Reference value :  8.25919e-06
 Reference value :  8.29147e-06
 Reference value :  8.50000e-06
 Reference value :  8.50000e-06
 Reference value :  8.50000e-06
 Reference value :  8.50002e-06
 Reference value :  8.50011e-06
 Reference value :  8.50027e-06
 Reference value :  8.50115e-06
 Reference value :  8.50197e-06
 Reference value :  8.50292e-06
 Reference value :  8.50446e-06
 Reference value :  8.50617e-06
 Reference value :  8.51731e-06
 Reference value :  8.52222e-06
 Reference value :  8.52603e-06
 Reference value :  8.52887e-06
 Reference value :  8.53332e-06
 Reference value :  8.53773e-06
 Reference value :  8.54293e-06
 Reference value :  8.55632e-06
 Reference value :  8.57305e-06
 Reference value :  8.68892e-06
 Reference value :  8.75013e-06
 Reference value :  8.75022e-06
 Reference value :  8.75069e-06
 Reference value :  8.75185e-06
 Reference value :  8.75342e-06
 Reference value :  8.75600e-06
 Reference value :  8.77254e-06
 Reference value :  9.00000e-06
 Reference value :  9.00011e-06
 Reference value :  9.00034e-06
 Reference value :  9.00119e-06
 Reference value :  9.00235e-06
 Reference value :  9.00332e-06
 Reference value :  9.00643e-06
 Reference value :  9.00878e-06
 Reference value :  9.01121e-06
 Reference value :  9.01368e-06
 Reference value :  9.02544e-06
 Reference value :  9.25011e-06
 Reference value :  9.25021e-06
 Reference value :  9.25069e-06
 Reference value :  9.25139e-06
 Reference value :  9.25229e-06
 Reference value :  9.25343e-06
 Reference value :  9.25446e-06
 Reference value :  9.25576e-06
 Reference value :  9.25823e-06
 Reference value :  9.26346e-06
 Reference value :  9.31192e-06
 Reference value :  9.50003e-06
 Reference value :  9.50011e-06
 Reference value :  9.50034e-06
 Reference value :  9.50119e-06
 Reference value :  9.50201e-06
 Reference value :  9.50290e-06
 Reference value :  9.50440e-06
 Reference value :  9.50534e-06
 Reference value :  9.50759e-06
 Reference value :  9.50928e-06
 Reference value :  9.51111e-06
 Reference value :  9.51273e-06
 Reference value :  9.51449e-06
 Reference value :  9.51643e-06
 Reference value :  9.52476e-06
 Reference value :  9.60941e-06
 Reference value :  9.75011e-06
 Reference value :  9.75020e-06
 Reference value :  9.75032e-06
 Reference value :  9.75098e-06
 Reference value :  9.75186e-06
 Reference value :  9.75299e-06
 Reference value :  9.75396e-06
 Reference value :  9.75601e-06
 Reference value :  9.76543e-06
 Reference value :  9.81687e-06
 Reference value :  1.00000e-05
 Reference value :  1.00001e-05
 Reference value :  1.00001e-05
 Reference value :  1.00002e-05
 Reference value :  1.00008e-05
 Reference value :  1.00015e-05
 Reference value :  1.00023e-05
 Reference value :  1.00033e-05
 Reference value :  1.00046e-05
 Reference value :  1.00060e-05
 Reference value :  1.00075e-05
 Reference value :  1.00103e-05
 Reference value :  1.00221e-05
 Reference value :  1.01423e-05
 Reference value :  1.02501e-05
 Reference value :  1.02502e-05
 Reference value :  1.02504e-05
 Reference value :  1.02510e-05
 Reference value :  1.02519e-05
 Reference value :  1.02530e-05
 Reference value :  1.02534e-05
 Reference value :  1.02545e-05
 Reference value :  1.02558e-05
 Reference value :  1.02575e-05
 Reference value :  1.02596e-05
 Reference value :  1.02747e-05
 Reference value :  1.04969e-05
 Reference value :  1.05001e-05
 Reference value :  1.05002e-05
 Reference value :  1.05012e-05
 Reference value :  1.05020e-05
 Reference value :  1.05029e-05
 Reference value :  1.05039e-05
 Reference value :  1.05048e-05
 Reference value :  1.05066e-05
 Reference value :  1.05084e-05
 Reference value :  1.05102e-05
 Reference value :  1.05119e-05
 Reference value :  1.05136e-05
 Reference value :  1.05164e-05
 Reference value :  1.05210e-05
 Reference value :  1.05636e-05
 Reference value :  1.07347e-05
 Reference value :  1.07502e-05
 Reference value :  1.07503e-05
 Reference value :  1.07510e-05
 Reference value :  1.07519e-05
 Reference value :  1.07530e-05
 Reference value :  1.07540e-05
 Reference value :  1.07553e-05
 Reference value :  1.07590e-05
 Reference value :  1.07875e-05
 Reference value :  1.10000e-05
 Reference value :  1.10001e-05
 Reference value :  1.10002e-05
 Reference value :  1.10005e-05
 Reference value :  1.10012e-05
 Reference value :  1.10019e-05
 Reference value :  1.10028e-05
 Reference value :  1.10039e-05
 Reference value :  1.10060e-05
 Reference value :  1.10075e-05
 Reference value :  1.10103e-05
 Reference value :  1.10221e-05
 Reference value :  1.11423e-05
 Reference value :  1.12502e-05
 Reference value :  1.12502e-05
 Reference value :  1.12504e-05
 Reference value :  1.12510e-05
 Reference value :  1.12514e-05
 Reference value :  1.12523e-05
 Reference value :  1.12534e-05
 Reference value :  1.12545e-05
 Reference value :  1.12558e-05
 Reference value :  1.12583e-05
 Reference value :  1.12610e-05
 Reference value :  1.12747e-05
 Reference value :  1.13785e-05
 Reference value :  1.15000e-05
 Reference value :  1.15001e-05
 Reference value :  1.15002e-05
 Reference value :  1.15003e-05
 Reference value :  1.15008e-05
 Reference value :  1.15016e-05
 Reference value :  1.15024e-05
 Reference value :  1.15034e-05
 Reference value :  1.15039e-05
 Reference value :  1.15048e-05
 Reference value :  1.15059e-05
 Reference value :  1.15076e-05
 Reference value :  1.15093e-05
 Reference value :  1.15102e-05
 Reference value :  1.15119e-05
 Reference value :  1.15136e-05
 Reference value :  1.15154e-05
 Reference value :  1.15174e-05
 Reference value :  1.15245e-05
 Reference value :  1.15617e-05
 Reference value :  1.16179e-05
 Reference value :  1.16754e-05
 Reference value :  1.17354e-05
 Reference value :  1.17501e-05
 Reference value :  1.17502e-05
 Reference value :  1.17503e-05
 Reference value :  1.17504e-05
 Reference value :  1.17510e-05
 Reference value :  1.17519e-05
 Reference value :  1.17530e-05
 Reference value :  1.17534e-05
 Reference value :  1.17546e-05
 Reference value :  1.17560e-05
 Reference value :  1.17590e-05
 Reference value :  1.17728e-05
 Reference value :  1.18755e-05
 Reference value :  1.20000e-05
 Reference value :  1.20001e-05
 Reference value :  1.20001e-05
 Reference value :  1.20003e-05
 Reference value :  1.20012e-05
 Reference value :  1.20019e-05
 Reference value :  1.20028e-05
 Reference value :  1.20046e-05
 Reference value :  1.20060e-05
 Reference value :  1.20075e-05
 Reference value :  1.20103e-05
 Reference value :  1.20167e-05
 Reference value :  1.20790e-05
 Reference value :  1.22501e-05
 Reference value :  1.22502e-05
 Reference value :  1.22503e-05
 Reference value :  1.22510e-05
 Reference value :  1.22519e-05
 Reference value :  1.22530e-05
 Reference value :  1.22534e-05
 Reference value :  1.22545e-05
 Reference value :  1.22558e-05
 Reference value :  1.22575e-05
 Reference value :  1.22596e-05
 Reference value :  1.22673e-05
 Reference value :  1.22747e-05
 Reference value :  1.24971e-05
 Reference value :  1.25000e-05
 Reference value :  1.25001e-05
 Reference value :  1.25002e-05
 Reference value :  1.25008e-05
 Reference value :  1.25016e-05
 Reference value :  1.25024e-05
 Reference value :  1.25034e-05
 Reference value :  1.25044e-05
 Reference value :  1.25053e-05
 Reference value :  1.25076e-05
 Reference value :  1.25093e-05
 Reference value :  1.25102e-05
 Reference value :  1.25119e-05
 Reference value :  1.25145e-05
 Reference value :  1.25177e-05
 Reference value :  1.25336e-05
 Reference value :  1.25534e-05
 Reference value :  1.25616e-05
 Reference value :  1.25703e-05
 Reference value :  1.25914e-05
 Reference value :  1.26792e-05
 Reference value :  1.27501e-05
 Reference value :  1.27502e-05
 Reference value :  1.27503e-05
 Reference value :  1.27510e-05
 Reference value :  1.27530e-05
 Reference value :  1.27546e-05
 Reference value :  1.27616e-05
 Reference value :  1.29867e-05
 Reference value :  1.30001e-05
 Reference value :  1.30002e-05
 Reference value :  1.30008e-05
 Reference value :  1.30016e-05
 Reference value :  1.30024e-05
 Reference value :  1.30034e-05
 Reference value :  1.30055e-05
 Reference value :  1.30069e-05
 Reference value :  1.30096e-05
 Reference value :  1.30296e-05
 Reference value :  1.32501e-05
 Reference value :  1.32502e-05
 Reference value :  1.32504e-05
 Reference value :  1.32514e-05
 Reference value :  1.32530e-05
 Reference value :  1.32540e-05
 Reference value :  1.32558e-05
 Reference value :  1.32603e-05
 Reference value :  1.33071e-05
 Reference value :  1.35000e-05
 Reference value :  1.35001e-05
 Reference value :  1.35003e-05
 Reference value :  1.35008e-05
 Reference value :  1.35016e-05
 Reference value :  1.35024e-05
 Reference value :  1.35034e-05
 Reference value :  1.35050e-05
 Reference value :  1.35071e-05
 Reference value :  1.35100e-05
 Reference value :  1.35122e-05
 Reference value :  1.35143e-05
 Reference value :  1.35163e-05
 Reference value :  1.35208e-05
 Reference value :  1.35365e-05
 Reference value :  1.35477e-05
 Reference value :  1.35707e-05
 Reference value :  1.35789e-05
 Reference value :  1.35959e-05
 Reference value :  1.36118e-05
 Reference value :  1.36505e-05
 Reference value :  1.37501e-05
 Reference value :  1.37501e-05
 Reference value :  1.37502e-05
 Reference value :  1.37503e-05
 Reference value :  1.37507e-05
 Reference value :  1.37514e-05
 Reference value :  1.37523e-05
 Reference value :  1.37534e-05
 Reference value :  1.37546e-05
 Reference value :  1.37559e-05
 Reference value :  1.37588e-05
 Reference value :  1.37719e-05
 Reference value :  1.38688e-05
 Reference value :  1.40000e-05
 Reference value :  1.40001e-05
 Reference value :  1.40002e-05
 Reference value :  1.40005e-05
 Reference value :  1.40012e-05
 Reference value :  1.40015e-05
 Reference value :  1.40028e-05
 Reference value :  1.40039e-05
 Reference value :  1.40054e-05
 Reference value :  1.40060e-05
 Reference value :  1.40075e-05
 Reference value :  1.40103e-05
 Reference value :  1.40316e-05
 Reference value :  1.42501e-05
 Reference value :  1.42502e-05
 Reference value :  1.42504e-05
 Reference value :  1.42514e-05
 Reference value :  1.42530e-05
 Reference value :  1.42540e-05
 Reference value :  1.42550e-05
 Reference value :  1.42566e-05
 Reference value :  1.42596e-05
 Reference value :  1.42674e-05
 Reference value :  1.43197e-05
 Reference value :  1.45000e-05
 Reference value :  1.45001e-05
 Reference value :  1.45001e-05
 Reference value :  1.45003e-05
 Reference value :  1.45008e-05
 Reference value :  1.45016e-05
 Reference value :  1.45024e-05
 Reference value :  1.45034e-05
 Reference value :  1.45044e-05
 Reference value :  1.45053e-05
 Reference value :  1.45076e-05
 Reference value :  1.45093e-05
 Reference value :  1.45102e-05
 Reference value :  1.45119e-05
 Reference value :  1.45136e-05
 Reference value :  1.45154e-05
 Reference value :  1.45175e-05
 Reference value :  1.45245e-05
 Reference value :  1.45316e-05
 Reference value :  1.45468e-05
 Reference value :  1.45948e-05
 Reference value :  1.46625e-05
 Reference value :  1.46872e-05
 Reference value :  1.47433e-05
 Reference value :  1.47501e-05
 Reference value :  1.47502e-05
 Reference value :  1.47503e-05
 Reference value :  1.47504e-05
 Reference value :  1.47514e-05
 Reference value :  1.47530e-05
 Reference value :  1.47546e-05
 Reference value :  1.47589e-05
 Reference value :  1.47867e-05
 Reference value :  1.50000e-05
 Reference value :  1.50002e-05
 Reference value :  1.50012e-05
 Reference value :  1.50029e-05
 Reference value :  1.50047e-05
 Reference value :  1.50062e-05
 Reference value :  1.50086e-05
 Reference value :  1.50205e-05
 Reference value :  1.52501e-05
 Reference value :  1.52502e-05
 Reference value :  1.52504e-05
 Reference value :  1.52514e-05
 Reference value :  1.52530e-05
 Reference value :  1.52540e-05
 Reference value :  1.52550e-05
 Reference value :  1.52566e-05
 Reference value :  1.52698e-05
 Reference value :  1.54560e-05
 Reference value :  1.55007e-05
 Reference value :  1.55030e-05
 Reference value :  1.55044e-05
 Reference value :  1.55056e-05
 Reference value :  1.55094e-05
 Reference value :  1.55121e-05
 Reference value :  1.55139e-05
 Reference value :  1.55159e-05
 Reference value :  1.55224e-05
 Reference value :  1.55559e-05
 Reference value :  1.55695e-05
 Reference value :  1.55790e-05
 Reference value :  1.56034e-05
 Reference value :  1.56659e-05
 Reference value :  1.57501e-05
 Reference value :  1.57502e-05
 Reference value :  1.57503e-05
 Reference value :  1.57510e-05
 Reference value :  1.57514e-05
 Reference value :  1.57523e-05
 Reference value :  1.57530e-05
 Reference value :  1.57534e-05
 Reference value :  1.57545e-05
 Reference value :  1.57559e-05
 Reference value :  1.57587e-05
 Reference value :  1.57648e-05
 Reference value :  1.58114e-05
 Reference value :  1.59710e-05
 Reference value :  1.60000e-05
 Reference value :  1.60001e-05
 Reference value :  1.60002e-05
 Reference value :  1.60003e-05
 Reference value :  1.60008e-05
 Reference value :  1.60015e-05
 Reference value :  1.60023e-05
 Reference value :  1.60028e-05
 Reference value :  1.60039e-05
 Reference value :  1.60054e-05
 Reference value :  1.60060e-05
 Reference value :  1.60075e-05
 Reference value :  1.60092e-05
 Reference value :  1.60114e-05
 Reference value :  1.60167e-05
 Reference value :  1.60473e-05
 Reference value :  1.62501e-05
 Reference value :  1.62501e-05
 Reference value :  1.62502e-05
 Reference value :  1.62503e-05
 Reference value :  1.62507e-05
 Reference value :  1.62514e-05
 Reference value :  1.62530e-05
 Reference value :  1.62534e-05
 Reference value :  1.62545e-05
 Reference value :  1.62558e-05
 Reference value :  1.62575e-05
 Reference value :  1.62596e-05
 Reference value :  1.62673e-05
 Reference value :  1.63188e-05
 Reference value :  1.65000e-05
 Reference value :  1.65001e-05
 Reference value :  1.65001e-05
 Reference value :  1.65003e-05
 Reference value :  1.65008e-05
 Reference value :  1.65016e-05
 Reference value :  1.65024e-05
 Reference value :  1.65034e-05
 Reference value :  1.65044e-05
 Reference value :  1.65053e-05
 Reference value :  1.65074e-05
 Reference value :  1.65090e-05
 Reference value :  1.65138e-05
 Reference value :  1.65244e-05
 Reference value :  1.65872e-05
 Reference value :  1.66667e-05
 Reference value :  1.67178e-05
 Reference value :  1.67501e-05
 Reference value :  1.67502e-05
 Reference value :  1.67504e-05
 Reference value :  1.67514e-05
 Reference value :  1.67536e-05
 Reference value :  1.67562e-05
 Reference value :  1.67592e-05
 Reference value :  1.67915e-05
 Reference value :  1.70000e-05
 Reference value :  1.70000e-05
 Reference value :  1.70000e-05
 Reference value :  1.70000e-05
 Reference value :  1.70001e-05
 Reference value :  1.70001e-05
 Reference value :  1.70003e-05
 Reference value :  1.70012e-05
 Reference value :  1.70020e-05
 Reference value :  1.70029e-05
 Reference value :  1.70045e-05
 Reference value :  1.70062e-05
 Reference value :  1.70173e-05
 Reference value :  1.70224e-05
 Reference value :  1.70262e-05
 Reference value :  1.70291e-05
 Reference value :  1.70336e-05
 Reference value :  1.70381e-05
 Reference value :  1.70432e-05
 Reference value :  1.70477e-05
 Reference value :  1.70523e-05
 Reference value :  1.70591e-05
 Reference value :  1.70677e-05
 Reference value :  1.70892e-05
 Reference value :  1.72501e-05
 Reference value :  1.72502e-05
 Reference value :  1.72507e-05
 Reference value :  1.72519e-05
 Reference value :  1.72534e-05
 Reference value :  1.72545e-05
 Reference value :  1.72573e-05
 Reference value :  1.72648e-05
 Reference value :  1.73115e-05
 Reference value :  1.75000e-05
 Reference value :  1.75001e-05
 Reference value :  1.75005e-05
 Reference value :  1.75015e-05
 Reference value :  1.75028e-05
 Reference value :  1.75046e-05
 Reference value :  1.75064e-05
 Reference value :  1.75088e-05
 Reference value :  1.75112e-05
 Reference value :  1.75137e-05
 Reference value :  1.75172e-05
 Reference value :  1.75333e-05
 Reference value :  1.77501e-05
 Reference value :  1.77502e-05
 Reference value :  1.77502e-05
 Reference value :  1.77504e-05
 Reference value :  1.77514e-05
 Reference value :  1.77530e-05
 Reference value :  1.77540e-05
 Reference value :  1.77550e-05
 Reference value :  1.77566e-05
 Reference value :  1.77596e-05
 Reference value :  1.77728e-05
 Reference value :  1.79275e-05
 Reference value :  1.80012e-05
 Reference value :  1.80049e-05
 Reference value :  1.80072e-05
 Reference value :  1.80092e-05
 Reference value :  1.80111e-05
 Reference value :  1.80128e-05
 Reference value :  1.80145e-05
 Reference value :  1.80162e-05
 Reference value :  1.80202e-05
 Reference value :  1.80492e-05
 Reference value :  1.81707e-05
 Reference value :  1.82501e-05
 Reference value :  1.82502e-05
 Reference value :  1.82503e-05
 Reference value :  1.82507e-05
 Reference value :  1.82514e-05
 Reference value :  1.82529e-05
 Reference value :  1.82539e-05
 Reference value :  1.82557e-05
 Reference value :  1.82633e-05
 Reference value :  1.83508e-05
 Reference value :  1.85000e-05
 Reference value :  1.85001e-05
 Reference value :  1.85003e-05
 Reference value :  1.85012e-05
 Reference value :  1.85019e-05
 Reference value :  1.85028e-05
 Reference value :  1.85039e-05
 Reference value :  1.85054e-05
 Reference value :  1.85060e-05
 Reference value :  1.85075e-05
 Reference value :  1.85092e-05
 Reference value :  1.85114e-05
 Reference value :  1.85315e-05
 Reference value :  1.86423e-05
 Reference value :  1.87501e-05
 Reference value :  1.87502e-05
 Reference value :  1.87503e-05
 Reference value :  1.87507e-05
 Reference value :  1.87514e-05
 Reference value :  1.87523e-05
 Reference value :  1.87534e-05
 Reference value :  1.87545e-05
 Reference value :  1.87558e-05
 Reference value :  1.87583e-05
 Reference value :  1.87636e-05
 Reference value :  1.88185e-05
 Reference value :  1.90000e-05
 Reference value :  1.90001e-05
 Reference value :  1.90002e-05
 Reference value :  1.90008e-05
 Reference value :  1.90016e-05
 Reference value :  1.90024e-05
 Reference value :  1.90034e-05
 Reference value :  1.90044e-05
 Reference value :  1.90053e-05
 Reference value :  1.90076e-05
 Reference value :  1.90093e-05
 Reference value :  1.90102e-05
 Reference value :  1.90119e-05
 Reference value :  1.90136e-05
 Reference value :  1.90154e-05
 Reference value :  1.90164e-05
 Reference value :  1.90210e-05
 Reference value :  1.90422e-05
 Reference value :  1.91402e-05
 Reference value :  1.92501e-05
 Reference value :  1.92502e-05
 Reference value :  1.92503e-05
 Reference value :  1.92507e-05
 Reference value :  1.92514e-05
 Reference value :  1.92530e-05
 Reference value :  1.92540e-05
 Reference value :  1.92560e-05
 Reference value :  1.92618e-05
 Reference value :  1.92875e-05
 Reference value :  1.95000e-05
 Reference value :  1.95002e-05
 Reference value :  1.95010e-05
 Reference value :  1.95015e-05
 Reference value :  1.95024e-05
 Reference value :  1.95035e-05
 Reference value :  1.95051e-05
 Reference value :  1.95058e-05
 Reference value :  1.95075e-05
 Reference value :  1.95093e-05
 Reference value :  1.95115e-05
 Reference value :  1.95222e-05
 Reference value :  1.95777e-05
 Reference value :  1.97501e-05
 Reference value :  1.97502e-05
 Reference value :  1.97502e-05
 Reference value :  1.97503e-05
 Reference value :  1.97507e-05
 Reference value :  1.97514e-05
 Reference value :  1.97523e-05
 Reference value :  1.97534e-05
 Reference value :  1.97545e-05
 Reference value :  1.97558e-05
 Reference value :  1.97575e-05
 Reference value :  1.97596e-05
 Reference value :  1.97636e-05
 Reference value :  1.97888e-05
 Reference value :  1.99906e-05
 Reference value :  2.00000e-05
 Reference value :  2.00001e-05
 Reference value :  2.00002e-05
 Reference value :  2.00005e-05
 Reference value :  2.00012e-05
 Reference value :  2.00016e-05
 Reference value :  2.00024e-05
 Reference value :  2.00029e-05
 Reference value :  2.00039e-05
 Reference value :  2.00048e-05
 Reference value :  2.00059e-05
 Reference value :  2.00076e-05
 Reference value :  2.00093e-05
 Reference value :  2.00102e-05
 Reference value :  2.00111e-05
 Reference value :  2.00127e-05
 Reference value :  2.00136e-05
 Reference value :  2.00154e-05
 Reference value :  2.00174e-05
 Reference value :  2.00245e-05
 Reference value :  2.00414e-05
 Reference value :  2.01175e-05
 Reference value :  2.01431e-05
 Reference value :  2.01936e-05
 Reference value :  2.02501e-05
 Reference value :  2.02501e-05
 Reference value :  2.02502e-05
 Reference value :  2.02502e-05
 Reference value :  2.02503e-05
 Reference value :  2.02507e-05
 Reference value :  2.02514e-05
 Reference value :  2.02523e-05
 Reference value :  2.02534e-05
 Reference value :  2.02546e-05
 Reference value :  2.02575e-05
 Reference value :  2.02654e-05
 Reference value :  2.03168e-05
 Reference value :  2.05000e-05
 Reference value :  2.05001e-05
 Reference value :  2.05005e-05
 Reference value :  2.05009e-05
 Reference value :  2.05015e-05
 Reference value :  2.05023e-05
 Reference value :  2.05029e-05
 Reference value :  2.05040e-05
 Reference value :  2.05056e-05
 Reference value :  2.05064e-05
 Reference value :  2.05080e-05
 Reference value :  2.05098e-05
 Reference value :  2.05170e-05
 Reference value :  2.05701e-05
 Reference value :  2.07501e-05
 Reference value :  2.07502e-05
 Reference value :  2.07502e-05
 Reference value :  2.07504e-05
 Reference value :  2.07510e-05
 Reference value :  2.07514e-05
 Reference value :  2.07523e-05
 Reference value :  2.07534e-05
 Reference value :  2.07545e-05
 Reference value :  2.07550e-05
 Reference value :  2.07558e-05
 Reference value :  2.07575e-05
 Reference value :  2.07596e-05
 Reference value :  2.07674e-05
 Reference value :  2.08200e-05
 Reference value :  2.10000e-05
 Reference value :  2.10001e-05
 Reference value :  2.10002e-05
 Reference value :  2.10003e-05
 Reference value :  2.10008e-05
 Reference value :  2.10016e-05
 Reference value :  2.10029e-05
 Reference value :  2.10039e-05
 Reference value :  2.10048e-05
 Reference value :  2.10066e-05
 Reference value :  2.10084e-05
 Reference value :  2.10102e-05
 Reference value :  2.10119e-05
 Reference value :  2.10136e-05
 Reference value :  2.10154e-05
 Reference value :  2.10194e-05
 Reference value :  2.10322e-05
 Reference value :  2.10405e-05
 Reference value :  2.10504e-05
 Reference value :  2.10587e-05
 Reference value :  2.10630e-05
 Reference value :  2.10719e-05
 Reference value :  2.11101e-05
 Reference value :  2.11898e-05
 Reference value :  2.12501e-05
 Reference value :  2.12502e-05
 Reference value :  2.12503e-05
 Reference value :  2.12510e-05
 Reference value :  2.12519e-05
 Reference value :  2.12530e-05
 Reference value :  2.12540e-05
 Reference value :  2.12552e-05
 Reference value :  2.12589e-05
 Reference value :  2.12867e-05
 Reference value :  2.15000e-05
 Reference value :  2.15001e-05
 Reference value :  2.15001e-05
 Reference value :  2.15003e-05
 Reference value :  2.15008e-05
 Reference value :  2.15016e-05
 Reference value :  2.15029e-05
 Reference value :  2.15047e-05
 Reference value :  2.15062e-05
 Reference value :  2.15087e-05
 Reference value :  2.15155e-05
 Reference value :  2.15828e-05
 Reference value :  2.17501e-05
 Reference value :  2.17502e-05
 Reference value :  2.17503e-05
 Reference value :  2.17510e-05
 Reference value :  2.17519e-05
 Reference value :  2.17530e-05
 Reference value :  2.17540e-05
 Reference value :  2.17550e-05
 Reference value :  2.17566e-05
 Reference value :  2.17698e-05
 Reference value :  2.19556e-05
 Reference value :  2.20008e-05
 Reference value :  2.20030e-05
 Reference value :  2.20038e-05
 Reference value :  2.20045e-05
 Reference value :  2.20051e-05
 Reference value :  2.20062e-05
 Reference value :  2.20093e-05
 Reference value :  2.20130e-05
 Reference value :  2.20159e-05
 Reference value :  2.20258e-05
 Reference value :  2.20843e-05
 Reference value :  2.21040e-05
 Reference value :  2.21334e-05
 Reference value :  2.22404e-05
 Reference value :  2.22502e-05
 Reference value :  2.22502e-05
 Reference value :  2.22504e-05
 Reference value :  2.22514e-05
 Reference value :  2.22530e-05
 Reference value :  2.22539e-05
 Reference value :  2.22574e-05
 Reference value :  2.22849e-05
 Reference value :  2.25000e-05
 Reference value :  2.25001e-05
 Reference value :  2.25002e-05
 Reference value :  2.25005e-05
 Reference value :  2.25015e-05
 Reference value :  2.25028e-05
 Reference value :  2.25046e-05
 Reference value :  2.25060e-05
 Reference value :  2.25075e-05
 Reference value :  2.25103e-05
 Reference value :  2.25316e-05
 Reference value :  2.27501e-05
 Reference value :  2.27502e-05
 Reference value :  2.27503e-05
 Reference value :  2.27510e-05
 Reference value :  2.27519e-05
 Reference value :  2.27534e-05
 Reference value :  2.27545e-05
 Reference value :  2.27558e-05
 Reference value :  2.27575e-05
 Reference value :  2.27596e-05
 Reference value :  2.27674e-05
 Reference value :  2.28799e-05
 Reference value :  2.30000e-05
 Reference value :  2.30000e-05
 Reference value :  2.30001e-05
 Reference value :  2.30002e-05
 Reference value :  2.30007e-05
 Reference value :  2.30019e-05
 Reference value :  2.30028e-05
 Reference value :  2.30038e-05
 Reference value :  2.30047e-05
 Reference value :  2.30063e-05
 Reference value :  2.30091e-05
 Reference value :  2.30109e-05
 Reference value :  2.30129e-05
 Reference value :  2.30148e-05
 Reference value :  2.30169e-05
 Reference value :  2.30222e-05
 Reference value :  2.30300e-05
 Reference value :  2.30374e-05
 Reference value :  2.30837e-05
 Reference value :  2.31034e-05
 Reference value :  2.31303e-05
 Reference value :  2.31936e-05
 Reference value :  2.32501e-05
 Reference value :  2.32502e-05
 Reference value :  2.32503e-05
 Reference value :  2.32507e-05
 Reference value :  2.32514e-05
 Reference value :  2.32530e-05
 Reference value :  2.32534e-05
 Reference value :  2.32546e-05
 Reference value :  2.32574e-05
 Reference value :  2.32651e-05
 Reference value :  2.33149e-05
 Reference value :  2.35000e-05
 Reference value :  2.35000e-05
 Reference value :  2.35001e-05
 Reference value :  2.35002e-05
 Reference value :  2.35003e-05
 Reference value :  2.35008e-05
 Reference value :  2.35016e-05
 Reference value :  2.35029e-05
 Reference value :  2.35040e-05
 Reference value :  2.35055e-05
 Reference value :  2.35062e-05
 Reference value :  2.35077e-05
 Reference value :  2.35096e-05
 Reference value :  2.35155e-05
 Reference value :  2.35473e-05
 Reference value :  2.37501e-05
 Reference value :  2.37502e-05
 Reference value :  2.37502e-05
 Reference value :  2.37504e-05
 Reference value :  2.37510e-05
 Reference value :  2.37519e-05
 Reference value :  2.37530e-05
 Reference value :  2.37534e-05
 Reference value :  2.37545e-05
 Reference value :  2.37558e-05
 Reference value :  2.37635e-05
 Reference value :  2.38555e-05
 Reference value :  2.40000e-05
 Reference value :  2.40001e-05
 Reference value :  2.40002e-05
 Reference value :  2.40005e-05
 Reference value :  2.40012e-05
 Reference value :  2.40020e-05
 Reference value :  2.40029e-05
 Reference value :  2.40040e-05
 Reference value :  2.40050e-05
 Reference value :  2.40063e-05
 Reference value :  2.40085e-05
 Reference value :  2.40112e-05
 Reference value :  2.40132e-05
 Reference value :  2.40143e-05
 Reference value :  2.40152e-05
 Reference value :  2.40174e-05
 Reference value :  2.40240e-05
 Reference value :  2.40502e-05
 Reference value :  2.40923e-05
 Reference value :  2.41491e-05
 Reference value :  2.42047e-05
 Reference value :  2.42501e-05
 Reference value :  2.42502e-05
 Reference value :  2.42502e-05
 Reference value :  2.42504e-05
 Reference value :  2.42510e-05
 Reference value :  2.42519e-05
 Reference value :  2.42530e-05
 Reference value :  2.42534e-05
 Reference value :  2.42546e-05
 Reference value :  2.42559e-05
 Reference value :  2.42615e-05
 Reference value :  2.42856e-05
 Reference value :  2.43748e-05
 Reference value :  2.45000e-05
 Reference value :  2.45001e-05
 Reference value :  2.45002e-05
 Reference value :  2.45008e-05
 Reference value :  2.45019e-05
 Reference value :  2.45028e-05
 Reference value :  2.45039e-05
 Reference value :  2.45060e-05
 Reference value :  2.45075e-05
 Reference value :  2.45103e-05
 Reference value :  2.45316e-05
 Reference value :  2.47501e-05
 Reference value :  2.47502e-05
 Reference value :  2.47503e-05
 Reference value :  2.47514e-05
 Reference value :  2.47530e-05
 Reference value :  2.47540e-05
 Reference value :  2.47550e-05
 Reference value :  2.47566e-05
 Reference value :  2.47596e-05
 Reference value :  2.47747e-05
 Reference value :  2.49968e-05
 Reference value :  2.50001e-05
 Reference value :  2.50001e-05
 Reference value :  2.50003e-05
 Reference value :  2.50008e-05
 Reference value :  2.50016e-05
 Reference value :  2.50029e-05
 Reference value :  2.50039e-05
 Reference value :  2.50048e-05
 Reference value :  2.50066e-05
 Reference value :  2.50082e-05
 Reference value :  2.50090e-05
 Reference value :  2.50128e-05
 Reference value :  2.50146e-05
 Reference value :  2.50200e-05
 Reference value :  2.50446e-05
 Reference value :  2.50587e-05
 Reference value :  2.50761e-05
 Reference value :  2.50961e-05
 Reference value :  2.51227e-05
 Reference value :  2.51870e-05
 Reference value :  2.52501e-05
 Reference value :  2.52502e-05
 Reference value :  2.52503e-05
 Reference value :  2.52504e-05
 Reference value :  2.52510e-05
 Reference value :  2.52519e-05
 Reference value :  2.52530e-05
 Reference value :  2.52545e-05
 Reference value :  2.52562e-05
 Reference value :  2.52592e-05
 Reference value :  2.52750e-05
 Reference value :  2.55000e-05
 Reference value :  2.55000e-05
 Reference value :  2.55000e-05
 Reference value :  2.55000e-05
 Reference value :  2.55000e-05
 Reference value :  2.55001e-05
 Reference value :  2.55002e-05
 Reference value :  2.55007e-05
 Reference value :  2.55016e-05
 Reference value :  2.55024e-05
 Reference value :  2.55029e-05
 Reference value :  2.55040e-05
 Reference value :  2.55045e-05
 Reference value :  2.55055e-05
 Reference value :  2.55090e-05
 Reference value :  2.55224e-05
 Reference value :  2.55262e-05
 Reference value :  2.55291e-05
 Reference value :  2.55336e-05
 Reference value :  2.55364e-05
 Reference value :  2.55415e-05
 Reference value :  2.55523e-05
 Reference value :  2.55568e-05
 Reference value :  2.55657e-05
 Reference value :  2.55726e-05
 Reference value :  2.55886e-05
 Reference value :  2.56397e-05
 Reference value :  2.57501e-05
 Reference value :  2.57502e-05
 Reference value :  2.57504e-05
 Reference value :  2.57514e-05
 Reference value :  2.57530e-05
 Reference value :  2.57539e-05
 Reference value :  2.57559e-05
 Reference value :  2.57648e-05
 Reference value :  2.59716e-05
 Reference value :  2.60001e-05
 Reference value :  2.60002e-05
 Reference value :  2.60005e-05
 Reference value :  2.60015e-05
 Reference value :  2.60028e-05
 Reference value :  2.60053e-05
 Reference value :  2.60088e-05
 Reference value :  2.60124e-05
 Reference value :  2.60203e-05
 Reference value :  2.62501e-05
 Reference value :  2.62503e-05
 Reference value :  2.62519e-05
 Reference value :  2.62534e-05
 Reference value :  2.62558e-05
 Reference value :  2.62609e-05
 Reference value :  2.65000e-05
 Reference value :  2.65012e-05
 Reference value :  2.65049e-05
 Reference value :  2.65084e-05
 Reference value :  2.65103e-05
 Reference value :  2.65131e-05
 Reference value :  2.65158e-05
 Reference value :  2.65197e-05
 Reference value :  2.65685e-05
 Reference value :  2.67501e-05
 Reference value :  2.67502e-05
 Reference value :  2.67503e-05
 Reference value :  2.67507e-05
 Reference value :  2.67514e-05
 Reference value :  2.67523e-05
 Reference value :  2.67533e-05
 Reference value :  2.67544e-05
 Reference value :  2.67557e-05
 Reference value :  2.67692e-05
 Reference value :  2.70000e-05
 Reference value :  2.70001e-05
 Reference value :  2.70003e-05
 Reference value :  2.70015e-05
 Reference value :  2.70028e-05
 Reference value :  2.70046e-05
 Reference value :  2.70060e-05
 Reference value :  2.70075e-05
 Reference value :  2.70103e-05
 Reference value :  2.70167e-05
 Reference value :  2.70476e-05
 Reference value :  2.72501e-05
 Reference value :  2.72502e-05
 Reference value :  2.72503e-05
 Reference value :  2.72507e-05
 Reference value :  2.72514e-05
 Reference value :  2.72523e-05
 Reference value :  2.72534e-05
 Reference value :  2.72550e-05
 Reference value :  2.72575e-05
 Reference value :  2.72672e-05
 Reference value :  2.75000e-05
 Reference value :  2.75001e-05
 Reference value :  2.75005e-05
 Reference value :  2.75016e-05
 Reference value :  2.75029e-05
 Reference value :  2.75044e-05
 Reference value :  2.75059e-05
 Reference value :  2.75084e-05
 Reference value :  2.75102e-05
 Reference value :  2.75127e-05
 Reference value :  2.75154e-05
 Reference value :  2.75210e-05
 Reference value :  2.76399e-05
 Reference value :  2.77502e-05
 Reference value :  2.77503e-05
 Reference value :  2.77514e-05
 Reference value :  2.77534e-05
 Reference value :  2.77590e-05
 Reference value :  2.78756e-05
 Reference value :  2.80002e-05
 Reference value :  2.80010e-05
 Reference value :  2.80016e-05
 Reference value :  2.80030e-05
 Reference value :  2.80051e-05
 Reference value :  2.80066e-05
 Reference value :  2.80093e-05
 Reference value :  2.80167e-05
 Reference value :  2.81393e-05
 Reference value :  2.82502e-05
 Reference value :  2.82503e-05
 Reference value :  2.82507e-05
 Reference value :  2.82514e-05
 Reference value :  2.82530e-05
 Reference value :  2.82540e-05
 Reference value :  2.82550e-05
 Reference value :  2.82566e-05
 Reference value :  2.82596e-05
 Reference value :  2.82741e-05
 Reference value :  2.84858e-05
 Reference value :  2.85001e-05
 Reference value :  2.85002e-05
 Reference value :  2.85005e-05
 Reference value :  2.85016e-05
 Reference value :  2.85029e-05
 Reference value :  2.85039e-05
 Reference value :  2.85048e-05
 Reference value :  2.85066e-05
 Reference value :  2.85084e-05
 Reference value :  2.85102e-05
 Reference value :  2.85119e-05
 Reference value :  2.85136e-05
 Reference value :  2.85154e-05
 Reference value :  2.85174e-05
 Reference value :  2.85312e-05
 Reference value :  2.85617e-05
 Reference value :  2.86200e-05
 Reference value :  2.86719e-05
 Reference value :  2.87501e-05
 Reference value :  2.87502e-05
 Reference value :  2.87503e-05
 Reference value :  2.87507e-05
 Reference value :  2.87514e-05
 Reference value :  2.87523e-05
 Reference value :  2.87534e-05
 Reference value :  2.87546e-05
 Reference value :  2.87560e-05
 Reference value :  2.87618e-05
 Reference value :  2.87874e-05
 Reference value :  2.89929e-05
 Reference value :  2.90001e-05
 Reference value :  2.90005e-05
 Reference value :  2.90012e-05
 Reference value :  2.90019e-05
 Reference value :  2.90029e-05
 Reference value :  2.90040e-05
 Reference value :  2.90056e-05
 Reference value :  2.90072e-05
 Reference value :  2.90088e-05
 Reference value :  2.90170e-05
 Reference value :  2.92501e-05
 Reference value :  2.92503e-05
 Reference value :  2.92514e-05
 Reference value :  2.92534e-05
 Reference value :  2.92558e-05
 Reference value :  2.92596e-05
 Reference value :  2.93200e-05
 Reference value :  2.95001e-05
 Reference value :  2.95002e-05
 Reference value :  2.95012e-05
 Reference value :  2.95024e-05
 Reference value :  2.95039e-05
 Reference value :  2.95048e-05
 Reference value :  2.95066e-05
 Reference value :  2.95084e-05
 Reference value :  2.95102e-05
 Reference value :  2.95119e-05
 Reference value :  2.95145e-05
 Reference value :  2.95166e-05
 Reference value :  2.95213e-05
 Reference value :  2.95403e-05
 Reference value :  2.95569e-05
 Reference value :  2.95609e-05
 Reference value :  2.95737e-05
 Reference value :  2.96227e-05
 Reference value :  2.97147e-05
 Reference value :  2.97502e-05
 Reference value :  2.97504e-05
 Reference value :  2.97519e-05
 Reference value :  2.97535e-05
 Reference value :  2.97560e-05
 Reference value :  2.97616e-05
 Reference value :  2.97867e-05
 Reference value :  3.00000e-05
 Reference value :  3.00001e-05
 Reference value :  3.00002e-05
 Reference value :  3.00008e-05
 Reference value :  3.00016e-05
 Reference value :  3.00024e-05
 Reference value :  3.00034e-05
 Reference value :  3.00047e-05
 Reference value :  3.00062e-05
 Reference value :  3.00087e-05
 Reference value :  3.00205e-05
 Reference value :  3.02501e-05
 Reference value :  3.02503e-05
 Reference value :  3.02514e-05
 Reference value :  3.02534e-05
 Reference value :  3.02558e-05
 Reference value :  3.02821e-05
 Reference value :  3.05008e-05
 Reference value :  3.05030e-05
 Reference value :  3.05045e-05
 Reference value :  3.05056e-05
 Reference value :  3.05093e-05
 Reference value :  3.05130e-05
 Reference value :  3.05148e-05
 Reference value :  3.05170e-05
 Reference value :  3.05220e-05
 Reference value :  3.05426e-05
 Reference value :  3.05686e-05
 Reference value :  3.05937e-05
 Reference value :  3.06124e-05
 Reference value :  3.06628e-05
 Reference value :  3.07501e-05
 Reference value :  3.07502e-05
 Reference value :  3.07502e-05
 Reference value :  3.07504e-05
 Reference value :  3.07514e-05
 Reference value :  3.07530e-05
 Reference value :  3.07539e-05
 Reference value :  3.07559e-05
 Reference value :  3.07648e-05
 Reference value :  3.10000e-05
 Reference value :  3.10001e-05
 Reference value :  3.10003e-05
 Reference value :  3.10012e-05
 Reference value :  3.10019e-05
 Reference value :  3.10028e-05
 Reference value :  3.10046e-05
 Reference value :  3.10060e-05
 Reference value :  3.10075e-05
 Reference value :  3.10103e-05
 Reference value :  3.10221e-05
 Reference value :  3.11426e-05
 Reference value :  3.12501e-05
 Reference value :  3.12502e-05
 Reference value :  3.12503e-05
 Reference value :  3.12510e-05
 Reference value :  3.12523e-05
 Reference value :  3.12534e-05
 Reference value :  3.12545e-05
 Reference value :  3.12558e-05
 Reference value :  3.12584e-05
 Reference value :  3.12637e-05
 Reference value :  3.13199e-05
 Reference value :  3.15000e-05
 Reference value :  3.15001e-05
 Reference value :  3.15001e-05
 Reference value :  3.15004e-05
 Reference value :  3.15010e-05
 Reference value :  3.15017e-05
 Reference value :  3.15031e-05
 Reference value :  3.15041e-05
 Reference value :  3.15051e-05
 Reference value :  3.15082e-05
 Reference value :  3.15090e-05
 Reference value :  3.15109e-05
 Reference value :  3.15139e-05
 Reference value :  3.15170e-05
 Reference value :  3.15300e-05
 Reference value :  3.15531e-05
 Reference value :  3.15634e-05
 Reference value :  3.15750e-05
 Reference value :  3.15905e-05
 Reference value :  3.16283e-05
 Reference value :  3.17501e-05
 Reference value :  3.17502e-05
 Reference value :  3.17503e-05
 Reference value :  3.17514e-05
 Reference value :  3.17530e-05
 Reference value :  3.17540e-05
 Reference value :  3.17559e-05
 Reference value :  3.17649e-05
 Reference value :  3.19771e-05
 Reference value :  3.20001e-05
 Reference value :  3.20002e-05
 Reference value :  3.20008e-05
 Reference value :  3.20020e-05
 Reference value :  3.20034e-05
 Reference value :  3.20055e-05
 Reference value :  3.20069e-05
 Reference value :  3.20087e-05
 Reference value :  3.20155e-05
 Reference value :  3.20831e-05
 Reference value :  3.22501e-05
 Reference value :  3.22503e-05
 Reference value :  3.22514e-05
 Reference value :  3.22534e-05
 Reference value :  3.22558e-05
 Reference value :  3.22819e-05
 Reference value :  3.25001e-05
 Reference value :  3.25003e-05
 Reference value :  3.25016e-05
 Reference value :  3.25034e-05
 Reference value :  3.25050e-05
 Reference value :  3.25100e-05
 Reference value :  3.25122e-05
 Reference value :  3.25152e-05
 Reference value :  3.25288e-05
 Reference value :  3.27501e-05
 Reference value :  3.27502e-05
 Reference value :  3.27507e-05
 Reference value :  3.27523e-05
 Reference value :  3.27540e-05
 Reference value :  3.27560e-05
 Reference value :  3.27652e-05
 Reference value :  3.29265e-05
 Reference value :  3.30000e-05
 Reference value :  3.30001e-05
 Reference value :  3.30001e-05
 Reference value :  3.30003e-05
 Reference value :  3.30012e-05
 Reference value :  3.30020e-05
 Reference value :  3.30028e-05
 Reference value :  3.30046e-05
 Reference value :  3.30060e-05
 Reference value :  3.30075e-05
 Reference value :  3.30092e-05
 Reference value :  3.30103e-05
 Reference value :  3.30166e-05
 Reference value :  3.30470e-05
 Reference value :  3.32501e-05
 Reference value :  3.32501e-05
 Reference value :  3.32502e-05
 Reference value :  3.32502e-05
 Reference value :  3.32504e-05
 Reference value :  3.32510e-05
 Reference value :  3.32519e-05
 Reference value :  3.32530e-05
 Reference value :  3.32534e-05
 Reference value :  3.32545e-05
 Reference value :  3.32558e-05
 Reference value :  3.32583e-05
 Reference value :  3.32610e-05
 Reference value :  3.32883e-05
 Reference value :  3.34505e-05
 Reference value :  3.35008e-05
 Reference value :  3.35034e-05
 Reference value :  3.35052e-05
 Reference value :  3.35067e-05
 Reference value :  3.35083e-05
 Reference value :  3.35097e-05
 Reference value :  3.35117e-05
 Reference value :  3.35144e-05
 Reference value :  3.35184e-05
 Reference value :  3.35343e-05
 Reference value :  3.35418e-05
 Reference value :  3.35577e-05
 Reference value :  3.35870e-05
 Reference value :  3.36996e-05
 Reference value :  3.37502e-05
 Reference value :  3.37504e-05
 Reference value :  3.37514e-05
 Reference value :  3.37529e-05
 Reference value :  3.37562e-05
 Reference value :  3.37739e-05
 Reference value :  3.40000e-05
 Reference value :  3.40000e-05
 Reference value :  3.40001e-05
 Reference value :  3.40003e-05
 Reference value :  3.40012e-05
 Reference value :  3.40020e-05
 Reference value :  3.40029e-05
 Reference value :  3.40040e-05
 Reference value :  3.40045e-05
 Reference value :  3.40062e-05
 Reference value :  3.40173e-05
 Reference value :  3.40224e-05
 Reference value :  3.40262e-05
 Reference value :  3.40291e-05
 Reference value :  3.40336e-05
 Reference value :  3.40364e-05
 Reference value :  3.40415e-05
 Reference value :  3.40483e-05
 Reference value :  3.40631e-05
 Reference value :  3.40678e-05
 Reference value :  3.40758e-05
 Reference value :  3.40856e-05
 Reference value :  3.41037e-05
 Reference value :  3.41556e-05
 Reference value :  3.42501e-05
 Reference value :  3.42502e-05
 Reference value :  3.42503e-05
 Reference value :  3.42507e-05
 Reference value :  3.42514e-05
 Reference value :  3.42530e-05
 Reference value :  3.42539e-05
 Reference value :  3.42559e-05
 Reference value :  3.42614e-05
 Reference value :  3.43648e-05
 Reference value :  3.45000e-05
 Reference value :  3.45002e-05
 Reference value :  3.45005e-05
 Reference value :  3.45012e-05
 Reference value :  3.45019e-05
 Reference value :  3.45028e-05
 Reference value :  3.45046e-05
 Reference value :  3.45064e-05
 Reference value :  3.45088e-05
 Reference value :  3.45124e-05
 Reference value :  3.45203e-05
 Reference value :  3.47501e-05
 Reference value :  3.47502e-05
 Reference value :  3.47507e-05
 Reference value :  3.47519e-05
 Reference value :  3.47530e-05
 Reference value :  3.47534e-05
 Reference value :  3.47545e-05
 Reference value :  3.47566e-05
 Reference value :  3.47666e-05
 Reference value :  3.50000e-05
 Reference value :  3.50001e-05
 Reference value :  3.50005e-05
 Reference value :  3.50016e-05
 Reference value :  3.50029e-05
 Reference value :  3.50039e-05
 Reference value :  3.50048e-05
 Reference value :  3.50066e-05
 Reference value :  3.50084e-05
 Reference value :  3.50102e-05
 Reference value :  3.50119e-05
 Reference value :  3.50136e-05
 Reference value :  3.50154e-05
 Reference value :  3.50175e-05
 Reference value :  3.50247e-05
 Reference value :  3.50426e-05
 Reference value :  3.51081e-05
 Reference value :  3.52501e-05
 Reference value :  3.52501e-05
 Reference value :  3.52502e-05
 Reference value :  3.52503e-05
 Reference value :  3.52504e-05
 Reference value :  3.52510e-05
 Reference value :  3.52514e-05
 Reference value :  3.52523e-05
 Reference value :  3.52530e-05
 Reference value :  3.52534e-05
 Reference value :  3.52546e-05
 Reference value :  3.52560e-05
 Reference value :  3.52590e-05
 Reference value :  3.52728e-05
 Reference value :  3.54932e-05
 Reference value :  3.55001e-05
 Reference value :  3.55002e-05
 Reference value :  3.55008e-05
 Reference value :  3.55015e-05
 Reference value :  3.55028e-05
 Reference value :  3.55046e-05
 Reference value :  3.55060e-05
 Reference value :  3.55075e-05
 Reference value :  3.55103e-05
 Reference value :  3.55221e-05
 Reference value :  3.56423e-05
 Reference value :  3.57502e-05
 Reference value :  3.57503e-05
 Reference value :  3.57510e-05
 Reference value :  3.57514e-05
 Reference value :  3.57523e-05
 Reference value :  3.57534e-05
 Reference value :  3.57545e-05
 Reference value :  3.57558e-05
 Reference value :  3.57583e-05
 Reference value :  3.57636e-05
 Reference value :  3.58785e-05
 Reference value :  3.60001e-05
 Reference value :  3.60001e-05
 Reference value :  3.60002e-05
 Reference value :  3.60005e-05
 Reference value :  3.60016e-05
 Reference value :  3.60029e-05
 Reference value :  3.60039e-05
 Reference value :  3.60048e-05
 Reference value :  3.60066e-05
 Reference value :  3.60084e-05
 Reference value :  3.60101e-05
 Reference value :  3.60119e-05
 Reference value :  3.60136e-05
 Reference value :  3.60153e-05
 Reference value :  3.60174e-05
 Reference value :  3.60310e-05
 Reference value :  3.61345e-05
 Reference value :  3.62501e-05
 Reference value :  3.62502e-05
 Reference value :  3.62503e-05
 Reference value :  3.62510e-05
 Reference value :  3.62519e-05
 Reference value :  3.62530e-05
 Reference value :  3.62546e-05
 Reference value :  3.62590e-05
 Reference value :  3.62875e-05
 Reference value :  3.65000e-05
 Reference value :  3.65001e-05
 Reference value :  3.65002e-05
 Reference value :  3.65008e-05
 Reference value :  3.65015e-05
 Reference value :  3.65028e-05
 Reference value :  3.65039e-05
 Reference value :  3.65054e-05
 Reference value :  3.65066e-05
 Reference value :  3.65084e-05
 Reference value :  3.65103e-05
 Reference value :  3.65221e-05
 Reference value :  3.67501e-05
 Reference value :  3.67502e-05
 Reference value :  3.67503e-05
 Reference value :  3.67510e-05
 Reference value :  3.67523e-05
 Reference value :  3.67534e-05
 Reference value :  3.67545e-05
 Reference value :  3.67566e-05
 Reference value :  3.67596e-05
 Reference value :  3.67747e-05
 Reference value :  3.69969e-05
 Reference value :  3.70001e-05
 Reference value :  3.70003e-05
 Reference value :  3.70008e-05
 Reference value :  3.70016e-05
 Reference value :  3.70024e-05
 Reference value :  3.70034e-05
 Reference value :  3.70044e-05
 Reference value :  3.70053e-05
 Reference value :  3.70076e-05
 Reference value :  3.70093e-05
 Reference value :  3.70102e-05
 Reference value :  3.70119e-05
 Reference value :  3.70136e-05
 Reference value :  3.70154e-05
 Reference value :  3.70174e-05
 Reference value :  3.70312e-05
 Reference value :  3.70912e-05
 Reference value :  3.71733e-05
 Reference value :  3.72501e-05
 Reference value :  3.72502e-05
 Reference value :  3.72507e-05
 Reference value :  3.72514e-05
 Reference value :  3.72523e-05
 Reference value :  3.72534e-05
 Reference value :  3.72546e-05
 Reference value :  3.72575e-05
 Reference value :  3.72654e-05
 Reference value :  3.73755e-05
 Reference value :  3.75000e-05
 Reference value :  3.75001e-05
 Reference value :  3.75003e-05
 Reference value :  3.75008e-05
 Reference value :  3.75015e-05
 Reference value :  3.75028e-05
 Reference value :  3.75046e-05
 Reference value :  3.75060e-05
 Reference value :  3.75075e-05
 Reference value :  3.75092e-05
 Reference value :  3.75114e-05
 Reference value :  3.75221e-05
 Reference value :  3.75790e-05
 Reference value :  3.77501e-05
 Reference value :  3.77502e-05
 Reference value :  3.77503e-05
 Reference value :  3.77507e-05
 Reference value :  3.77514e-05
 Reference value :  3.77530e-05
 Reference value :  3.77534e-05
 Reference value :  3.77545e-05
 Reference value :  3.77558e-05
 Reference value :  3.77575e-05
 Reference value :  3.77596e-05
 Reference value :  3.77673e-05
 Reference value :  3.78192e-05
 Reference value :  3.80000e-05
 Reference value :  3.80000e-05
 Reference value :  3.80001e-05
 Reference value :  3.80002e-05
 Reference value :  3.80005e-05
 Reference value :  3.80012e-05
 Reference value :  3.80016e-05
 Reference value :  3.80024e-05
 Reference value :  3.80034e-05
 Reference value :  3.80039e-05
 Reference value :  3.80048e-05
 Reference value :  3.80059e-05
 Reference value :  3.80076e-05
 Reference value :  3.80093e-05
 Reference value :  3.80102e-05
 Reference value :  3.80119e-05
 Reference value :  3.80136e-05
 Reference value :  3.80154e-05
 Reference value :  3.80194e-05
 Reference value :  3.80322e-05
 Reference value :  3.80392e-05
 Reference value :  3.80548e-05
 Reference value :  3.80589e-05
 Reference value :  3.80708e-05
 Reference value :  3.81148e-05
 Reference value :  3.81933e-05
 Reference value :  3.82501e-05
 Reference value :  3.82502e-05
 Reference value :  3.82503e-05
 Reference value :  3.82510e-05
 Reference value :  3.82519e-05
 Reference value :  3.82530e-05
 Reference value :  3.82540e-05
 Reference value :  3.82552e-05
 Reference value :  3.82589e-05
 Reference value :  3.82866e-05
 Reference value :  3.84870e-05
 Reference value :  3.85002e-05
 Reference value :  3.85009e-05
 Reference value :  3.85015e-05
 Reference value :  3.85029e-05
 Reference value :  3.85048e-05
 Reference value :  3.85071e-05
 Reference value :  3.85096e-05
 Reference value :  3.85226e-05
 Reference value :  3.86079e-05
 Reference value :  3.87501e-05
 Reference value :  3.87503e-05
 Reference value :  3.87510e-05
 Reference value :  3.87519e-05
 Reference value :  3.87534e-05
 Reference value :  3.87558e-05
 Reference value :  3.87820e-05
 Reference value :  3.90000e-05
 Reference value :  3.90001e-05
 Reference value :  3.90003e-05
 Reference value :  3.90012e-05
 Reference value :  3.90020e-05
 Reference value :  3.90029e-05
 Reference value :  3.90040e-05
 Reference value :  3.90050e-05
 Reference value :  3.90071e-05
 Reference value :  3.90100e-05
 Reference value :  3.90112e-05
 Reference value :  3.90143e-05
 Reference value :  3.90174e-05
 Reference value :  3.90365e-05
 Reference value :  3.90595e-05
 Reference value :  3.90977e-05
 Reference value :  3.91159e-05
 Reference value :  3.91631e-05
 Reference value :  3.92501e-05
 Reference value :  3.92502e-05
 Reference value :  3.92503e-05
 Reference value :  3.92510e-05
 Reference value :  3.92519e-05
 Reference value :  3.92530e-05
 Reference value :  3.92539e-05
 Reference value :  3.92559e-05
 Reference value :  3.92649e-05
 Reference value :  3.93687e-05
 Reference value :  3.95000e-05
 Reference value :  3.95001e-05
 Reference value :  3.95002e-05
 Reference value :  3.95008e-05
 Reference value :  3.95015e-05
 Reference value :  3.95028e-05
 Reference value :  3.95046e-05
 Reference value :  3.95060e-05
 Reference value :  3.95075e-05
 Reference value :  3.95103e-05
 Reference value :  3.95221e-05
 Reference value :  3.96426e-05
 Reference value :  3.97502e-05
 Reference value :  3.97503e-05
 Reference value :  3.97510e-05
 Reference value :  3.97519e-05
 Reference value :  3.97534e-05
 Reference value :  3.97545e-05
 Reference value :  3.97558e-05
 Reference value :  3.97584e-05
 Reference value :  3.97636e-05
 Reference value :  3.98794e-05
 Reference value :  4.00000e-05
 Reference value :  4.00001e-05
 Reference value :  4.00008e-05
 Reference value :  4.00024e-05
 Reference value :  4.00039e-05
 Reference value :  4.00059e-05
 Reference value :  4.00076e-05
 Reference value :  4.00093e-05
 Reference value :  4.00102e-05
 Reference value :  4.00119e-05
 Reference value :  4.00144e-05
 Reference value :  4.00163e-05
 Reference value :  4.00206e-05
 Reference value :  4.00276e-05
 Reference value :  4.00397e-05
 Reference value :  4.00533e-05
 Reference value :  4.00590e-05
 Reference value :  4.00705e-05
 Reference value :  4.00847e-05
 Reference value :  4.01295e-05
 Reference value :  4.02501e-05
 Reference value :  4.02502e-05
 Reference value :  4.02503e-05
 Reference value :  4.02507e-05
 Reference value :  4.02514e-05
 Reference value :  4.02530e-05
 Reference value :  4.02546e-05
 Reference value :  4.02589e-05
 Reference value :  4.03152e-05
 Reference value :  4.05000e-05
 Reference value :  4.05002e-05
 Reference value :  4.05008e-05
 Reference value :  4.05020e-05
 Reference value :  4.05034e-05
 Reference value :  4.05055e-05
 Reference value :  4.05077e-05
 Reference value :  4.05125e-05
 Reference value :  4.05825e-05
 Reference value :  4.07502e-05
 Reference value :  4.07502e-05
 Reference value :  4.07507e-05
 Reference value :  4.07514e-05
 Reference value :  4.07530e-05
 Reference value :  4.07540e-05
 Reference value :  4.07550e-05
 Reference value :  4.07566e-05
 Reference value :  4.07698e-05
 Reference value :  4.09556e-05
 Reference value :  4.10008e-05
 Reference value :  4.10030e-05
 Reference value :  4.10045e-05
 Reference value :  4.10051e-05
 Reference value :  4.10062e-05
 Reference value :  4.10093e-05
 Reference value :  4.10120e-05
 Reference value :  4.10139e-05
 Reference value :  4.10159e-05
 Reference value :  4.10201e-05
 Reference value :  4.10419e-05
 Reference value :  4.12193e-05
 Reference value :  4.12501e-05
 Reference value :  4.12502e-05
 Reference value :  4.12504e-05
 Reference value :  4.12514e-05
 Reference value :  4.12530e-05
 Reference value :  4.12539e-05
 Reference value :  4.12551e-05
 Reference value :  4.12586e-05
 Reference value :  4.12838e-05
 Reference value :  4.14640e-05
 Reference value :  4.15000e-05
 Reference value :  4.15001e-05
 Reference value :  4.15002e-05
 Reference value :  4.15003e-05
 Reference value :  4.15016e-05
 Reference value :  4.15029e-05
 Reference value :  4.15047e-05
 Reference value :  4.15062e-05
 Reference value :  4.15077e-05
 Reference value :  4.15109e-05
 Reference value :  4.15290e-05
 Reference value :  4.17501e-05
 Reference value :  4.17502e-05
 Reference value :  4.17502e-05
 Reference value :  4.17504e-05
 Reference value :  4.17510e-05
 Reference value :  4.17514e-05
 Reference value :  4.17523e-05
 Reference value :  4.17534e-05
 Reference value :  4.17545e-05
 Reference value :  4.17558e-05
 Reference value :  4.17603e-05
 Reference value :  4.17824e-05
 Reference value :  4.20000e-05
 Reference value :  4.20001e-05
 Reference value :  4.20001e-05
 Reference value :  4.20003e-05
 Reference value :  4.20012e-05
 Reference value :  4.20020e-05
 Reference value :  4.20029e-05
 Reference value :  4.20045e-05
 Reference value :  4.20056e-05
 Reference value :  4.20072e-05
 Reference value :  4.20088e-05
 Reference value :  4.20366e-05
 Reference value :  4.22501e-05
 Reference value :  4.22502e-05
 Reference value :  4.22507e-05
 Reference value :  4.22523e-05
 Reference value :  4.22553e-05
 Reference value :  4.22662e-05
 Reference value :  4.25000e-05
 Reference value :  4.25000e-05
 Reference value :  4.25000e-05
 Reference value :  4.25001e-05
 Reference value :  4.25002e-05
 Reference value :  4.25012e-05
 Reference value :  4.25024e-05
 Reference value :  4.25035e-05
 Reference value :  4.25045e-05
 Reference value :  4.25074e-05
 Reference value :  4.25224e-05
 Reference value :  4.25262e-05
 Reference value :  4.25291e-05
 Reference value :  4.25336e-05
 Reference value :  4.25361e-05
 Reference value :  4.25393e-05
 Reference value :  4.25424e-05
 Reference value :  4.25469e-05
 Reference value :  4.25557e-05
 Reference value :  4.25663e-05
 Reference value :  4.25781e-05
 Reference value :  4.26240e-05
 Reference value :  4.27501e-05
 Reference value :  4.27502e-05
 Reference value :  4.27504e-05
 Reference value :  4.27514e-05
 Reference value :  4.27530e-05
 Reference value :  4.27545e-05
 Reference value :  4.27587e-05
 Reference value :  4.27713e-05
 Reference value :  4.28636e-05
 Reference value :  4.30000e-05
 Reference value :  4.30001e-05
 Reference value :  4.30003e-05
 Reference value :  4.30008e-05
 Reference value :  4.30015e-05
 Reference value :  4.30028e-05
 Reference value :  4.30039e-05
 Reference value :  4.30064e-05
 Reference value :  4.30088e-05
 Reference value :  4.30112e-05
 Reference value :  4.30137e-05
 Reference value :  4.30204e-05
 Reference value :  4.31390e-05
 Reference value :  4.32502e-05
 Reference value :  4.32503e-05
 Reference value :  4.32514e-05
 Reference value :  4.32530e-05
 Reference value :  4.32540e-05
 Reference value :  4.32550e-05
 Reference value :  4.32566e-05
 Reference value :  4.32582e-05
 Reference value :  4.32635e-05
 Reference value :  4.33046e-05
 Reference value :  4.35012e-05
 Reference value :  4.35046e-05
 Reference value :  4.35067e-05
 Reference value :  4.35095e-05
 Reference value :  4.35114e-05
 Reference value :  4.35133e-05
 Reference value :  4.35153e-05
 Reference value :  4.35174e-05
 Reference value :  4.35229e-05
 Reference value :  4.35464e-05
 Reference value :  4.37342e-05
 Reference value :  4.37502e-05
 Reference value :  4.37502e-05
 Reference value :  4.37504e-05
 Reference value :  4.37514e-05
 Reference value :  4.37523e-05
 Reference value :  4.37533e-05
 Reference value :  4.37549e-05
 Reference value :  4.37602e-05
 Reference value :  4.38039e-05
 Reference value :  4.40000e-05
 Reference value :  4.40001e-05
 Reference value :  4.40002e-05
 Reference value :  4.40012e-05
 Reference value :  4.40023e-05
 Reference value :  4.40039e-05
 Reference value :  4.40060e-05
 Reference value :  4.40084e-05
 Reference value :  4.40136e-05
 Reference value :  4.40790e-05
 Reference value :  4.42501e-05
 Reference value :  4.42502e-05
 Reference value :  4.42504e-05
 Reference value :  4.42514e-05
 Reference value :  4.42530e-05
 Reference value :  4.42540e-05
 Reference value :  4.42550e-05
 Reference value :  4.42566e-05
 Reference value :  4.42596e-05
 Reference value :  4.42747e-05
 Reference value :  4.44958e-05
 Reference value :  4.45001e-05
 Reference value :  4.45002e-05
 Reference value :  4.45005e-05
 Reference value :  4.45012e-05
 Reference value :  4.45016e-05
 Reference value :  4.45024e-05
 Reference value :  4.45029e-05
 Reference value :  4.45039e-05
 Reference value :  4.45048e-05
 Reference value :  4.45066e-05
 Reference value :  4.45084e-05
 Reference value :  4.45102e-05
 Reference value :  4.45119e-05
 Reference value :  4.45136e-05
 Reference value :  4.45154e-05
 Reference value :  4.45175e-05
 Reference value :  4.45247e-05
 Reference value :  4.45924e-05
 Reference value :  4.47501e-05
 Reference value :  4.47502e-05
 Reference value :  4.47503e-05
 Reference value :  4.47510e-05
 Reference value :  4.47523e-05
 Reference value :  4.47534e-05
 Reference value :  4.47553e-05
 Reference value :  4.47654e-05
 Reference value :  4.49866e-05
 Reference value :  4.50001e-05
 Reference value :  4.50002e-05
 Reference value :  4.50005e-05
 Reference value :  4.50015e-05
 Reference value :  4.50028e-05
 Reference value :  4.50046e-05
 Reference value :  4.50060e-05
 Reference value :  4.50075e-05
 Reference value :  4.50103e-05
 Reference value :  4.50315e-05
 Reference value :  4.51423e-05
 Reference value :  4.52501e-05
 Reference value :  4.52502e-05
 Reference value :  4.52502e-05
 Reference value :  4.52504e-05
 Reference value :  4.52510e-05
 Reference value :  4.52514e-05
 Reference value :  4.52523e-05
 Reference value :  4.52534e-05
 Reference value :  4.52545e-05
 Reference value :  4.52558e-05
 Reference value :  4.52575e-05
 Reference value :  4.52596e-05
 Reference value :  4.52673e-05
 Reference value :  4.53192e-05
 Reference value :  4.55000e-05
 Reference value :  4.55000e-05
 Reference value :  4.55001e-05
 Reference value :  4.55002e-05
 Reference value :  4.55005e-05
 Reference value :  4.55012e-05
 Reference value :  4.55020e-05
 Reference value :  4.55029e-05
 Reference value :  4.55039e-05
 Reference value :  4.55048e-05
 Reference value :  4.55059e-05
 Reference value :  4.55076e-05
 Reference value :  4.55093e-05
 Reference value :  4.55111e-05
 Reference value :  4.55127e-05
 Reference value :  4.55145e-05
 Reference value :  4.55164e-05
 Reference value :  4.55210e-05
 Reference value :  4.55616e-05
 Reference value :  4.56455e-05
 Reference value :  4.56880e-05
 Reference value :  4.57323e-05
 Reference value :  4.57501e-05
 Reference value :  4.57502e-05
 Reference value :  4.57502e-05
 Reference value :  4.57504e-05
 Reference value :  4.57514e-05
 Reference value :  4.57523e-05
 Reference value :  4.57534e-05
 Reference value :  4.57546e-05
 Reference value :  4.57575e-05
 Reference value :  4.57654e-05
 Reference value :  4.58168e-05
 Reference value :  4.60000e-05
 Reference value :  4.60001e-05
 Reference value :  4.60005e-05
 Reference value :  4.60009e-05
 Reference value :  4.60015e-05
 Reference value :  4.60029e-05
 Reference value :  4.60040e-05
 Reference value :  4.60048e-05
 Reference value :  4.60064e-05
 Reference value :  4.60080e-05
 Reference value :  4.60098e-05
 Reference value :  4.60170e-05
 Reference value :  4.60707e-05
 Reference value :  4.62501e-05
 Reference value :  4.62501e-05
 Reference value :  4.62502e-05
 Reference value :  4.62503e-05
 Reference value :  4.62507e-05
 Reference value :  4.62514e-05
 Reference value :  4.62523e-05
 Reference value :  4.62534e-05
 Reference value :  4.62545e-05
 Reference value :  4.62558e-05
 Reference value :  4.62575e-05
 Reference value :  4.62596e-05
 Reference value :  4.62674e-05
 Reference value :  4.63200e-05
 Reference value :  4.65000e-05
 Reference value :  4.65001e-05
 Reference value :  4.65002e-05
 Reference value :  4.65008e-05
 Reference value :  4.65016e-05
 Reference value :  4.65024e-05
 Reference value :  4.65034e-05
 Reference value :  4.65044e-05
 Reference value :  4.65053e-05
 Reference value :  4.65076e-05
 Reference value :  4.65093e-05
 Reference value :  4.65102e-05
 Reference value :  4.65119e-05
 Reference value :  4.65136e-05
 Reference value :  4.65166e-05
 Reference value :  4.65214e-05
 Reference value :  4.65397e-05
 Reference value :  4.65540e-05
 Reference value :  4.65578e-05
 Reference value :  4.65654e-05
 Reference value :  4.65970e-05
 Reference value :  4.66588e-05
 Reference value :  4.67501e-05
 Reference value :  4.67502e-05
 Reference value :  4.67504e-05
 Reference value :  4.67514e-05
 Reference value :  4.67530e-05
 Reference value :  4.67540e-05
 Reference value :  4.67552e-05
 Reference value :  4.67589e-05
 Reference value :  4.67866e-05
 Reference value :  4.69869e-05
 Reference value :  4.70000e-05
 Reference value :  4.70001e-05
 Reference value :  4.70002e-05
 Reference value :  4.70003e-05
 Reference value :  4.70008e-05
 Reference value :  4.70016e-05
 Reference value :  4.70029e-05
 Reference value :  4.70040e-05
 Reference value :  4.70062e-05
 Reference value :  4.70077e-05
 Reference value :  4.70096e-05
 Reference value :  4.70155e-05
 Reference value :  4.70474e-05
 Reference value :  4.72501e-05
 Reference value :  4.72501e-05
 Reference value :  4.72502e-05
 Reference value :  4.72502e-05
 Reference value :  4.72504e-05
 Reference value :  4.72514e-05
 Reference value :  4.72530e-05
 Reference value :  4.72540e-05
 Reference value :  4.72550e-05
 Reference value :  4.72566e-05
 Reference value :  4.72698e-05
 Reference value :  4.74557e-05
 Reference value :  4.75000e-05
 Reference value :  4.75001e-05
 Reference value :  4.75002e-05
 Reference value :  4.75005e-05
 Reference value :  4.75016e-05
 Reference value :  4.75029e-05
 Reference value :  4.75045e-05
 Reference value :  4.75063e-05
 Reference value :  4.75112e-05
 Reference value :  4.75143e-05
 Reference value :  4.75174e-05
 Reference value :  4.75365e-05
 Reference value :  4.75734e-05
 Reference value :  4.76053e-05
 Reference value :  4.76308e-05
 Reference value :  4.76605e-05
 Reference value :  4.76966e-05
 Reference value :  4.77501e-05
 Reference value :  4.77502e-05
 Reference value :  4.77502e-05
[...]
 Reference value :  1.65512e-04
 Reference value :  1.65514e-04
 Reference value :  1.65515e-04
 Reference value :  1.65520e-04
 Reference value :  1.65529e-04
 Reference value :  1.65534e-04
 Reference value :  1.65537e-04
 Reference value :  1.65542e-04
 Reference value :  1.65554e-04
 Reference value :  1.65576e-04
 Reference value :  1.65601e-04
 Reference value :  1.65636e-04
 Reference value :  1.65710e-04
 Reference value :  1.65750e-04
 Reference value :  1.65750e-04
 Reference value :  1.65750e-04
 Reference value :  1.65751e-04
 Reference value :  1.65752e-04
 Reference value :  1.65753e-04
 Reference value :  1.65754e-04
 Reference value :  1.65755e-04
 Reference value :  1.65759e-04
 Reference value :  1.65787e-04
 Reference value :  1.66000e-04
 Reference value :  1.66000e-04
 Reference value :  1.66000e-04
 Reference value :  1.66000e-04
 Reference value :  1.66001e-04
 Reference value :  1.66002e-04
 Reference value :  1.66002e-04
 Reference value :  1.66003e-04
 Reference value :  1.66005e-04
 Reference value :  1.66006e-04
 Reference value :  1.66008e-04
 Reference value :  1.66011e-04
 Reference value :  1.66030e-04
 Reference value :  1.66250e-04
 Reference value :  1.66250e-04
 Reference value :  1.66250e-04
 Reference value :  1.66250e-04
 Reference value :  1.66251e-04
 Reference value :  1.66253e-04
 Reference value :  1.66254e-04
 Reference value :  1.66255e-04
 Reference value :  1.66257e-04
 Reference value :  1.66270e-04
 Reference value :  1.66456e-04
 Reference value :  1.66500e-04
 Reference value :  1.66500e-04
 Reference value :  1.66500e-04
 Reference value :  1.66501e-04
 Reference value :  1.66502e-04
 Reference value :  1.66503e-04
 Reference value :  1.66504e-04
 Reference value :  1.66506e-04
 Reference value :  1.66508e-04
 Reference value :  1.66511e-04
 Reference value :  1.66513e-04
 Reference value :  1.66515e-04
 Reference value :  1.66517e-04
 Reference value :  1.66524e-04
 Reference value :  1.66547e-04
 Reference value :  1.66603e-04
 Reference value :  1.66709e-04
 Reference value :  1.66750e-04
 Reference value :  1.66750e-04
 Reference value :  1.66750e-04
 Reference value :  1.66751e-04
 Reference value :  1.66751e-04
 Reference value :  1.66753e-04
 Reference value :  1.66754e-04
 Reference value :  1.66755e-04
 Reference value :  1.66759e-04
 Reference value :  1.66787e-04
 Reference value :  1.67000e-04
 Reference value :  1.67000e-04
 Reference value :  1.67000e-04
 Reference value :  1.67000e-04
 Reference value :  1.67001e-04
 Reference value :  1.67002e-04
 Reference value :  1.67002e-04
 Reference value :  1.67003e-04
 Reference value :  1.67005e-04
 Reference value :  1.67006e-04
 Reference value :  1.67008e-04
 Reference value :  1.67010e-04
 Reference value :  1.67015e-04
 Reference value :  1.67082e-04
 Reference value :  1.67250e-04
 Reference value :  1.67250e-04
 Reference value :  1.67250e-04
 Reference value :  1.67251e-04
 Reference value :  1.67252e-04
 Reference value :  1.67253e-04
 Reference value :  1.67253e-04
 Reference value :  1.67254e-04
 Reference value :  1.67256e-04
 Reference value :  1.67260e-04
 Reference value :  1.67282e-04
 Reference value :  1.67457e-04
 Reference value :  1.67500e-04
 Reference value :  1.67500e-04
 Reference value :  1.67501e-04
 Reference value :  1.67502e-04
 Reference value :  1.67503e-04
 Reference value :  1.67504e-04
 Reference value :  1.67505e-04
 Reference value :  1.67508e-04
 Reference value :  1.67511e-04
 Reference value :  1.67514e-04
 Reference value :  1.67516e-04
 Reference value :  1.67521e-04
 Reference value :  1.67546e-04
 Reference value :  1.67703e-04
 Reference value :  1.67750e-04
 Reference value :  1.67750e-04
 Reference value :  1.67751e-04
 Reference value :  1.67752e-04
 Reference value :  1.67753e-04
 Reference value :  1.67754e-04
 Reference value :  1.67755e-04
 Reference value :  1.67759e-04
 Reference value :  1.67787e-04
 Reference value :  1.68000e-04
 Reference value :  1.68000e-04
 Reference value :  1.68000e-04
 Reference value :  1.68000e-04
 Reference value :  1.68001e-04
 Reference value :  1.68002e-04
 Reference value :  1.68003e-04
 Reference value :  1.68005e-04
 Reference value :  1.68006e-04
 Reference value :  1.68008e-04
 Reference value :  1.68010e-04
 Reference value :  1.68015e-04
 Reference value :  1.68082e-04
 Reference value :  1.68250e-04
 Reference value :  1.68250e-04
 Reference value :  1.68250e-04
 Reference value :  1.68251e-04
 Reference value :  1.68251e-04
 Reference value :  1.68253e-04
 Reference value :  1.68254e-04
 Reference value :  1.68255e-04
 Reference value :  1.68258e-04
 Reference value :  1.68307e-04
 Reference value :  1.68500e-04
 Reference value :  1.68500e-04
 Reference value :  1.68500e-04
 Reference value :  1.68501e-04
 Reference value :  1.68502e-04
 Reference value :  1.68502e-04
 Reference value :  1.68503e-04
 Reference value :  1.68505e-04
 Reference value :  1.68507e-04
 Reference value :  1.68510e-04
 Reference value :  1.68511e-04
 Reference value :  1.68513e-04
 Reference value :  1.68515e-04
 Reference value :  1.68517e-04
 Reference value :  1.68521e-04
 Reference value :  1.68536e-04
 Reference value :  1.68623e-04
 Reference value :  1.68750e-04
 Reference value :  1.68750e-04
 Reference value :  1.68750e-04
 Reference value :  1.68751e-04
 Reference value :  1.68752e-04
 Reference value :  1.68753e-04
 Reference value :  1.68756e-04
 Reference value :  1.68765e-04
 Reference value :  1.68815e-04
 Reference value :  1.68925e-04
 Reference value :  1.69000e-04
 Reference value :  1.69000e-04
 Reference value :  1.69000e-04
 Reference value :  1.69001e-04
 Reference value :  1.69002e-04
 Reference value :  1.69003e-04
 Reference value :  1.69005e-04
 Reference value :  1.69006e-04
 Reference value :  1.69008e-04
 Reference value :  1.69014e-04
 Reference value :  1.69078e-04
 Reference value :  1.69250e-04
 Reference value :  1.69250e-04
 Reference value :  1.69250e-04
 Reference value :  1.69251e-04
 Reference value :  1.69252e-04
 Reference value :  1.69253e-04
 Reference value :  1.69254e-04
 Reference value :  1.69256e-04
 Reference value :  1.69257e-04
 Reference value :  1.69260e-04
 Reference value :  1.69274e-04
 Reference value :  1.69467e-04
 Reference value :  1.69500e-04
 Reference value :  1.69500e-04
 Reference value :  1.69501e-04
 Reference value :  1.69502e-04
 Reference value :  1.69503e-04
 Reference value :  1.69504e-04
 Reference value :  1.69505e-04
 Reference value :  1.69507e-04
 Reference value :  1.69509e-04
 Reference value :  1.69514e-04
 Reference value :  1.69520e-04
 Reference value :  1.69536e-04
 Reference value :  1.69556e-04
 Reference value :  1.69600e-04
 Reference value :  1.69750e-04
 Reference value :  1.69750e-04
 Reference value :  1.69750e-04
 Reference value :  1.69751e-04
 Reference value :  1.69752e-04
 Reference value :  1.69753e-04
 Reference value :  1.69755e-04
 Reference value :  1.69758e-04
 Reference value :  1.69766e-04
 Reference value :  1.69882e-04
 Reference value :  1.70000e-04
 Reference value :  1.70000e-04
 Reference value :  1.70000e-04
 Reference value :  1.70000e-04
 Reference value :  1.70000e-04
 Reference value :  1.70000e-04
 Reference value :  1.70000e-04
 Reference value :  1.70001e-04
 Reference value :  1.70002e-04
 Reference value :  1.70003e-04
 Reference value :  1.70004e-04
 Reference value :  1.70004e-04
 Reference value :  1.70006e-04
 Reference value :  1.70012e-04
 Reference value :  1.70022e-04
 Reference value :  1.70026e-04
 Reference value :  1.70029e-04
 Reference value :  1.70034e-04
 Reference value :  1.70037e-04
 Reference value :  1.70047e-04
 Reference value :  1.70063e-04
 Reference value :  1.70076e-04
 Reference value :  1.70080e-04
 Reference value :  1.70088e-04
 Reference value :  1.70095e-04
 Reference value :  1.70105e-04
 Reference value :  1.70117e-04
 Reference value :  1.70169e-04
 Reference value :  1.70250e-04
 Reference value :  1.70250e-04
 Reference value :  1.70251e-04
 Reference value :  1.70253e-04
 Reference value :  1.70254e-04
 Reference value :  1.70256e-04
 Reference value :  1.70261e-04
 Reference value :  1.70312e-04
 Reference value :  1.70500e-04
 Reference value :  1.70500e-04
 Reference value :  1.70500e-04
 Reference value :  1.70501e-04
 Reference value :  1.70502e-04
 Reference value :  1.70503e-04
 Reference value :  1.70504e-04
 Reference value :  1.70506e-04
 Reference value :  1.70509e-04
 Reference value :  1.70511e-04
 Reference value :  1.70514e-04
 Reference value :  1.70517e-04
 Reference value :  1.70533e-04
 Reference value :  1.70750e-04
 Reference value :  1.70750e-04
 Reference value :  1.70750e-04
 Reference value :  1.70751e-04
 Reference value :  1.70751e-04
 Reference value :  1.70752e-04
 Reference value :  1.70753e-04
 Reference value :  1.70754e-04
 Reference value :  1.70756e-04
 Reference value :  1.70758e-04
 Reference value :  1.70763e-04
 Reference value :  1.70805e-04
 Reference value :  1.71000e-04
 Reference value :  1.71000e-04
 Reference value :  1.71000e-04
 Reference value :  1.71000e-04
 Reference value :  1.71001e-04
 Reference value :  1.71002e-04
 Reference value :  1.71002e-04
 Reference value :  1.71003e-04
 Reference value :  1.71004e-04
 Reference value :  1.71005e-04
 Reference value :  1.71007e-04
 Reference value :  1.71008e-04
 Reference value :  1.71010e-04
 Reference value :  1.71012e-04
 Reference value :  1.71014e-04
 Reference value :  1.71016e-04
 Reference value :  1.71021e-04
 Reference value :  1.71065e-04
 Reference value :  1.71231e-04
 Reference value :  1.71250e-04
 Reference value :  1.71250e-04
 Reference value :  1.71250e-04
 Reference value :  1.71251e-04
 Reference value :  1.71251e-04
 Reference value :  1.71253e-04
 Reference value :  1.71254e-04
 Reference value :  1.71255e-04
 Reference value :  1.71257e-04
 Reference value :  1.71265e-04
 Reference value :  1.71376e-04
 Reference value :  1.71500e-04
 Reference value :  1.71500e-04
 Reference value :  1.71500e-04
 Reference value :  1.71501e-04
 Reference value :  1.71501e-04
 Reference value :  1.71502e-04
 Reference value :  1.71503e-04
 Reference value :  1.71504e-04
 Reference value :  1.71506e-04
 Reference value :  1.71507e-04
 Reference value :  1.71510e-04
 Reference value :  1.71517e-04
 Reference value :  1.71579e-04
 Reference value :  1.71750e-04
 Reference value :  1.71750e-04
 Reference value :  1.71750e-04
 Reference value :  1.71751e-04
 Reference value :  1.71751e-04
 Reference value :  1.71752e-04
 Reference value :  1.71753e-04
 Reference value :  1.71754e-04
 Reference value :  1.71756e-04
 Reference value :  1.71758e-04
 Reference value :  1.71764e-04
 Reference value :  1.71819e-04
 Reference value :  1.72000e-04
 Reference value :  1.72000e-04
 Reference value :  1.72000e-04
 Reference value :  1.72000e-04
 Reference value :  1.72001e-04
 Reference value :  1.72002e-04
 Reference value :  1.72003e-04
 Reference value :  1.72004e-04
 Reference value :  1.72005e-04
 Reference value :  1.72006e-04
 Reference value :  1.72008e-04
 Reference value :  1.72009e-04
 Reference value :  1.72010e-04
 Reference value :  1.72012e-04
 Reference value :  1.72014e-04
 Reference value :  1.72016e-04
 Reference value :  1.72025e-04
 Reference value :  1.72092e-04
 Reference value :  1.72250e-04
 Reference value :  1.72250e-04
 Reference value :  1.72250e-04
 Reference value :  1.72250e-04
 Reference value :  1.72251e-04
 Reference value :  1.72253e-04
 Reference value :  1.72254e-04
 Reference value :  1.72257e-04
 Reference value :  1.72287e-04
 Reference value :  1.72500e-04
 Reference value :  1.72500e-04
 Reference value :  1.72501e-04
 Reference value :  1.72502e-04
 Reference value :  1.72503e-04
 Reference value :  1.72505e-04
 Reference value :  1.72507e-04
 Reference value :  1.72508e-04
 Reference value :  1.72514e-04
 Reference value :  1.72579e-04
 Reference value :  1.72750e-04
 Reference value :  1.72750e-04
 Reference value :  1.72751e-04
 Reference value :  1.72753e-04
 Reference value :  1.72754e-04
 Reference value :  1.72757e-04
 Reference value :  1.72760e-04
 Reference value :  1.72819e-04
 Reference value :  1.73000e-04
 Reference value :  1.73000e-04
 Reference value :  1.73001e-04
 Reference value :  1.73002e-04
 Reference value :  1.73003e-04
 Reference value :  1.73004e-04
 Reference value :  1.73005e-04
 Reference value :  1.73008e-04
 Reference value :  1.73009e-04
 Reference value :  1.73011e-04
 Reference value :  1.73014e-04
 Reference value :  1.73016e-04
 Reference value :  1.73031e-04
 Reference value :  1.73077e-04
 Reference value :  1.73118e-04
 Reference value :  1.73154e-04
 Reference value :  1.73179e-04
 Reference value :  1.73230e-04
 Reference value :  1.73250e-04
 Reference value :  1.73250e-04
 Reference value :  1.73251e-04
 Reference value :  1.73251e-04
 Reference value :  1.73253e-04
 Reference value :  1.73255e-04
 Reference value :  1.73259e-04
 Reference value :  1.73301e-04
 Reference value :  1.73324e-04
 Reference value :  1.73371e-04
 Reference value :  1.73500e-04
 Reference value :  1.73500e-04
 Reference value :  1.73500e-04
 Reference value :  1.73500e-04
 Reference value :  1.73501e-04
 Reference value :  1.73502e-04
 Reference value :  1.73503e-04
 Reference value :  1.73504e-04
 Reference value :  1.73506e-04
 Reference value :  1.73507e-04
 Reference value :  1.73509e-04
 Reference value :  1.73511e-04
 Reference value :  1.73522e-04
 Reference value :  1.73581e-04
 Reference value :  1.73750e-04
 Reference value :  1.73750e-04
 Reference value :  1.73750e-04
 Reference value :  1.73750e-04
 Reference value :  1.73751e-04
 Reference value :  1.73751e-04
 Reference value :  1.73752e-04
 Reference value :  1.73753e-04
 Reference value :  1.73754e-04
 Reference value :  1.73756e-04
 Reference value :  1.73758e-04
 Reference value :  1.73764e-04
 Reference value :  1.73819e-04
 Reference value :  1.74000e-04
 Reference value :  1.74000e-04
 Reference value :  1.74000e-04
 Reference value :  1.74000e-04
 Reference value :  1.74001e-04
 Reference value :  1.74002e-04
 Reference value :  1.74002e-04
 Reference value :  1.74003e-04
 Reference value :  1.74004e-04
 Reference value :  1.74005e-04
 Reference value :  1.74006e-04
 Reference value :  1.74008e-04
 Reference value :  1.74009e-04
 Reference value :  1.74010e-04
 Reference value :  1.74012e-04
 Reference value :  1.74014e-04
 Reference value :  1.74015e-04
 Reference value :  1.74017e-04
 Reference value :  1.74020e-04
 Reference value :  1.74031e-04
 Reference value :  1.74037e-04
 Reference value :  1.74042e-04
 Reference value :  1.74060e-04
 Reference value :  1.74086e-04
 Reference value :  1.74111e-04
 Reference value :  1.74199e-04
 Reference value :  1.74250e-04
 Reference value :  1.74250e-04
 Reference value :  1.74250e-04
 Reference value :  1.74251e-04
 Reference value :  1.74253e-04
 Reference value :  1.74254e-04
 Reference value :  1.74256e-04
 Reference value :  1.74265e-04
 Reference value :  1.74372e-04
 Reference value :  1.74500e-04
 Reference value :  1.74500e-04
 Reference value :  1.74500e-04
 Reference value :  1.74501e-04
 Reference value :  1.74502e-04
 Reference value :  1.74503e-04
 Reference value :  1.74505e-04
 Reference value :  1.74506e-04
 Reference value :  1.74509e-04
 Reference value :  1.74520e-04
 Reference value :  1.74750e-04
 Reference value :  1.74750e-04
 Reference value :  1.74750e-04
 Reference value :  1.74751e-04
 Reference value :  1.74752e-04
 Reference value :  1.74753e-04
 Reference value :  1.74755e-04
 Reference value :  1.74760e-04
 Reference value :  1.74857e-04
 Reference value :  1.75000e-04
 Reference value :  1.75000e-04
 Reference value :  1.75001e-04
 Reference value :  1.75002e-04
 Reference value :  1.75003e-04
 Reference value :  1.75005e-04
 Reference value :  1.75007e-04
 Reference value :  1.75010e-04
 Reference value :  1.75012e-04
 Reference value :  1.75015e-04
 Reference value :  1.75017e-04
 Reference value :  1.75029e-04
 Reference value :  1.75059e-04
 Reference value :  1.75145e-04
 Reference value :  1.75250e-04
 Reference value :  1.75250e-04
 Reference value :  1.75251e-04
 Reference value :  1.75251e-04
 Reference value :  1.75253e-04
 Reference value :  1.75255e-04
 Reference value :  1.75259e-04
 Reference value :  1.75315e-04
 Reference value :  1.75500e-04
 Reference value :  1.75500e-04
 Reference value :  1.75501e-04
 Reference value :  1.75502e-04
 Reference value :  1.75503e-04
 Reference value :  1.75506e-04
 Reference value :  1.75507e-04
 Reference value :  1.75510e-04
 Reference value :  1.75530e-04
 Reference value :  1.75750e-04
 Reference value :  1.75750e-04
 Reference value :  1.75750e-04
 Reference value :  1.75751e-04
 Reference value :  1.75753e-04
 Reference value :  1.75755e-04
 Reference value :  1.75757e-04
 Reference value :  1.75782e-04
 Reference value :  1.76000e-04
 Reference value :  1.76000e-04
 Reference value :  1.76000e-04
 Reference value :  1.76001e-04
 Reference value :  1.76002e-04
 Reference value :  1.76004e-04
 Reference value :  1.76006e-04
 Reference value :  1.76010e-04
 Reference value :  1.76012e-04
 Reference value :  1.76015e-04
 Reference value :  1.76021e-04
 Reference value :  1.76046e-04
 Reference value :  1.76201e-04
 Reference value :  1.76250e-04
 Reference value :  1.76250e-04
 Reference value :  1.76251e-04
 Reference value :  1.76253e-04
 Reference value :  1.76255e-04
 Reference value :  1.76262e-04
 Reference value :  1.76373e-04
 Reference value :  1.76500e-04
 Reference value :  1.76500e-04
 Reference value :  1.76501e-04
 Reference value :  1.76502e-04
 Reference value :  1.76503e-04
 Reference value :  1.76506e-04
 Reference value :  1.76506e-04
 Reference value :  1.76508e-04
 Reference value :  1.76510e-04
 Reference value :  1.76530e-04
 Reference value :  1.76750e-04
 Reference value :  1.76750e-04
 Reference value :  1.76751e-04
 Reference value :  1.76752e-04
 Reference value :  1.76753e-04
 Reference value :  1.76753e-04
 Reference value :  1.76754e-04
 Reference value :  1.76757e-04
 Reference value :  1.76770e-04
 Reference value :  1.77000e-04
 Reference value :  1.77000e-04
 Reference value :  1.77000e-04
 Reference value :  1.77001e-04
 Reference value :  1.77001e-04
 Reference value :  1.77003e-04
 Reference value :  1.77005e-04
 Reference value :  1.77008e-04
 Reference value :  1.77011e-04
 Reference value :  1.77015e-04
 Reference value :  1.77024e-04
 Reference value :  1.77199e-04
 Reference value :  1.77250e-04
 Reference value :  1.77251e-04
 Reference value :  1.77252e-04
 Reference value :  1.77253e-04
 Reference value :  1.77255e-04
 Reference value :  1.77262e-04
 Reference value :  1.77372e-04
 Reference value :  1.77500e-04
 Reference value :  1.77500e-04
 Reference value :  1.77501e-04
 Reference value :  1.77501e-04
 Reference value :  1.77502e-04
 Reference value :  1.77503e-04
 Reference value :  1.77505e-04
 Reference value :  1.77507e-04
 Reference value :  1.77510e-04
 Reference value :  1.77547e-04
 Reference value :  1.77750e-04
 Reference value :  1.77750e-04
 Reference value :  1.77751e-04
 Reference value :  1.77752e-04
 Reference value :  1.77753e-04
 Reference value :  1.77755e-04
 Reference value :  1.77758e-04
 Reference value :  1.77807e-04
 Reference value :  1.78000e-04
 Reference value :  1.78000e-04
 Reference value :  1.78001e-04
 Reference value :  1.78002e-04
 Reference value :  1.78003e-04
 Reference value :  1.78005e-04
 Reference value :  1.78008e-04
 Reference value :  1.78023e-04
 Reference value :  1.78250e-04
 Reference value :  1.78250e-04
 Reference value :  1.78250e-04
 Reference value :  1.78251e-04
 Reference value :  1.78252e-04
 Reference value :  1.78253e-04
 Reference value :  1.78255e-04
 Reference value :  1.78258e-04
 Reference value :  1.78275e-04
 Reference value :  1.78382e-04
No. of Data Rows : 25902
ngspice-44 done
