
Note: Compatibility modes selected: hs a


Circuit: ** sch_path: /home/madra/cace/sar-adc-using-sky130-pdk/runs/run_2025-09-01_18-46-44/parameters/inl/run_3/sar_output.sch

option SCALE: Scale is set to 1e-06 for instance and model parameters
option SCALE: Scale is set to 1e-06 for instance and model parameters
option SCALE: Scale is set to 1e-06 for instance and model parameters
option SCALE: Scale is set to 1e-06 for instance and model parameters
Doing analysis at TEMP = 27.000000 and TNOM = 27.000000

Using KLU as Direct Linear Solver
Operating point simulation skipped by 'uic',
  now using transient initial conditions.
 Reference value :  1.00000e-12
 Reference value :  1.19600e-12
 Reference value :  3.13230e-12
 Reference value :  9.32009e-12
 Reference value :  3.23800e-11
 Reference value :  1.00000e-10
 Reference value :  1.15053e-10
 Reference value :  1.75267e-10
 Reference value :  4.16119e-10
 Reference value :  9.65147e-10
 Reference value :  1.90643e-09
 Reference value :  3.24363e-09
 Reference value :  5.17142e-09
 Reference value :  6.10001e-09
 Reference value :  6.77180e-09
 Reference value :  8.17256e-09
 Reference value :  9.94430e-09
 Reference value :  1.09656e-08
 Reference value :  1.18603e-08
 Reference value :  1.44154e-08
 Reference value :  2.04774e-08
 Reference value :  2.47873e-08
 Reference value :  3.37457e-08
 Reference value :  4.44609e-08
 Reference value :  6.30360e-08
 Reference value :  1.57921e-07
 Reference value :  2.50110e-07
 Reference value :  2.50170e-07
 Reference value :  2.50208e-07
 Reference value :  2.50253e-07
 Reference value :  2.50405e-07
 Reference value :  2.50725e-07
 Reference value :  2.51387e-07
 Reference value :  2.51835e-07
 Reference value :  2.52922e-07
 Reference value :  2.54232e-07
 Reference value :  2.55495e-07
 Reference value :  2.57096e-07
 Reference value :  2.58498e-07
 Reference value :  2.66200e-07
 Reference value :  3.07632e-07
 Reference value :  5.00000e-07
 Reference value :  5.00070e-07
 Reference value :  5.00156e-07
 Reference value :  5.00863e-07
 Reference value :  5.02311e-07
 Reference value :  5.03342e-07
 Reference value :  5.05507e-07
 Reference value :  5.07724e-07
 Reference value :  5.10005e-07
 Reference value :  5.11170e-07
 Reference value :  5.13774e-07
 Reference value :  5.17448e-07
 Reference value :  5.27675e-07
 Reference value :  6.20924e-07
 Reference value :  7.50130e-07
 Reference value :  7.50208e-07
 Reference value :  7.50318e-07
 Reference value :  7.50831e-07
 Reference value :  7.51700e-07
 Reference value :  7.52703e-07
 Reference value :  7.53493e-07
 Reference value :  7.54007e-07
 Reference value :  7.55255e-07
 Reference value :  7.56926e-07
 Reference value :  7.59789e-07
 Reference value :  7.74797e-07
 Reference value :  8.65972e-07
 Reference value :  1.00001e-06
 Reference value :  1.00007e-06
 Reference value :  1.00011e-06
 Reference value :  1.00016e-06
 Reference value :  1.00034e-06
 Reference value :  1.00086e-06
 Reference value :  1.00231e-06
 Reference value :  1.00333e-06
 Reference value :  1.00449e-06
 Reference value :  1.00586e-06
 Reference value :  1.01010e-06
 Reference value :  1.01280e-06
 Reference value :  1.01379e-06
 Reference value :  1.01587e-06
 Reference value :  1.01929e-06
 Reference value :  1.03079e-06
 Reference value :  1.04689e-06
 Reference value :  1.06149e-06
 Reference value :  1.06703e-06
 Reference value :  1.07603e-06
 Reference value :  1.09486e-06
 Reference value :  1.12788e-06
 Reference value :  1.25010e-06
 Reference value :  1.25017e-06
 Reference value :  1.25022e-06
 Reference value :  1.25045e-06
 Reference value :  1.25127e-06
 Reference value :  1.25216e-06
 Reference value :  1.25346e-06
 Reference value :  1.25453e-06
 Reference value :  1.25584e-06
 Reference value :  1.25982e-06
 Reference value :  1.29013e-06
 Reference value :  1.50001e-06
 Reference value :  1.50010e-06
 Reference value :  1.50012e-06
 Reference value :  1.50034e-06
 Reference value :  1.50086e-06
 Reference value :  1.50175e-06
 Reference value :  1.50322e-06
 Reference value :  1.50442e-06
 Reference value :  1.50605e-06
 Reference value :  1.50671e-06
 Reference value :  1.50832e-06
 Reference value :  1.51149e-06
 Reference value :  1.54273e-06
 Reference value :  1.75011e-06
 Reference value :  1.75020e-06
 Reference value :  1.75032e-06
 Reference value :  1.75083e-06
 Reference value :  1.75214e-06
 Reference value :  1.75401e-06
 Reference value :  1.75598e-06
 Reference value :  1.75680e-06
 Reference value :  1.75871e-06
 Reference value :  1.76167e-06
 Reference value :  1.77226e-06
 Reference value :  1.81668e-06
 Reference value :  2.00000e-06
 Reference value :  2.00007e-06
 Reference value :  2.00012e-06
 Reference value :  2.00034e-06
 Reference value :  2.00086e-06
 Reference value :  2.00182e-06
 Reference value :  2.00278e-06
 Reference value :  2.00334e-06
 Reference value :  2.00519e-06
 Reference value :  2.00582e-06
 Reference value :  2.00733e-06
 Reference value :  2.00943e-06
 Reference value :  2.01155e-06
 Reference value :  2.01351e-06
 Reference value :  2.01529e-06
 Reference value :  2.01725e-06
 Reference value :  2.01840e-06
 Reference value :  2.02143e-06
 Reference value :  2.03522e-06
 Reference value :  2.11263e-06
 Reference value :  2.19742e-06
 Reference value :  2.22507e-06
 Reference value :  2.24699e-06
 Reference value :  2.25011e-06
 Reference value :  2.25017e-06
 Reference value :  2.25022e-06
 Reference value :  2.25032e-06
 Reference value :  2.25060e-06
 Reference value :  2.25127e-06
 Reference value :  2.25216e-06
 Reference value :  2.25352e-06
 Reference value :  2.25403e-06
 Reference value :  2.25524e-06
 Reference value :  2.25597e-06
 Reference value :  2.26012e-06
 Reference value :  2.27399e-06
 Reference value :  2.33256e-06
 Reference value :  2.37383e-06
 Reference value :  2.45139e-06
 Reference value :  2.50003e-06
 Reference value :  2.50010e-06
 Reference value :  2.50016e-06
 Reference value :  2.50034e-06
 Reference value :  2.50131e-06
 Reference value :  2.50223e-06
 Reference value :  2.50322e-06
 Reference value :  2.50442e-06
 Reference value :  2.50605e-06
 Reference value :  2.50671e-06
 Reference value :  2.50832e-06
 Reference value :  2.51150e-06
 Reference value :  2.52599e-06
 Reference value :  2.63924e-06
 Reference value :  2.75013e-06
 Reference value :  2.75021e-06
 Reference value :  2.75032e-06
 Reference value :  2.75083e-06
 Reference value :  2.75170e-06
 Reference value :  2.75350e-06
 Reference value :  2.75460e-06
 Reference value :  2.75598e-06
 Reference value :  2.75764e-06
 Reference value :  2.76165e-06
 Reference value :  2.78016e-06
 Reference value :  2.85359e-06
 Reference value :  3.00003e-06
 Reference value :  3.00011e-06
 Reference value :  3.00034e-06
 Reference value :  3.00131e-06
 Reference value :  3.00231e-06
 Reference value :  3.00334e-06
 Reference value :  3.00519e-06
 Reference value :  3.00648e-06
 Reference value :  3.00834e-06
 Reference value :  3.01047e-06
 Reference value :  3.01155e-06
 Reference value :  3.01351e-06
 Reference value :  3.01529e-06
 Reference value :  3.01839e-06
 Reference value :  3.02344e-06
 Reference value :  3.04197e-06
 Reference value :  3.05207e-06
 Reference value :  3.06260e-06
 Reference value :  3.07489e-06
 Reference value :  3.09539e-06
 Reference value :  3.13849e-06
 Reference value :  3.25010e-06
 Reference value :  3.25017e-06
 Reference value :  3.25022e-06
 Reference value :  3.25044e-06
 Reference value :  3.25126e-06
 Reference value :  3.25214e-06
 Reference value :  3.25350e-06
 Reference value :  3.25460e-06
 Reference value :  3.25598e-06
 Reference value :  3.26015e-06
 Reference value :  3.27640e-06
 Reference value :  3.39439e-06
 Reference value :  3.50003e-06
 Reference value :  3.50011e-06
 Reference value :  3.50022e-06
 Reference value :  3.50086e-06
 Reference value :  3.50181e-06
 Reference value :  3.50333e-06
 Reference value :  3.50455e-06
 Reference value :  3.50638e-06
 Reference value :  3.50715e-06
 Reference value :  3.50887e-06
 Reference value :  3.51093e-06
 Reference value :  3.51801e-06
 Reference value :  3.58836e-06
 Reference value :  3.75011e-06
 Reference value :  3.75020e-06
 Reference value :  3.75026e-06
 Reference value :  3.75060e-06
 Reference value :  3.75127e-06
 Reference value :  3.75215e-06
 Reference value :  3.75351e-06
 Reference value :  3.75402e-06
 Reference value :  3.75527e-06
 Reference value :  3.75689e-06
 Reference value :  3.76020e-06
 Reference value :  3.77712e-06
 Reference value :  3.88485e-06
 Reference value :  4.00003e-06
 Reference value :  4.00011e-06
 Reference value :  4.00022e-06
 Reference value :  4.00086e-06
 Reference value :  4.00182e-06
 Reference value :  4.00278e-06
 Reference value :  4.00332e-06
 Reference value :  4.00449e-06
 Reference value :  4.00586e-06
 Reference value :  4.00748e-06
 Reference value :  4.01007e-06
 Reference value :  4.01288e-06
 Reference value :  4.01490e-06
 Reference value :  4.01712e-06
 Reference value :  4.02116e-06
 Reference value :  4.03157e-06
 Reference value :  4.04692e-06
 Reference value :  4.06247e-06
 Reference value :  4.07570e-06
 Reference value :  4.11192e-06
 Reference value :  4.25010e-06
 Reference value :  4.25017e-06
 Reference value :  4.25022e-06
 Reference value :  4.25039e-06
 Reference value :  4.25099e-06
 Reference value :  4.25194e-06
 Reference value :  4.25312e-06
 Reference value :  4.25443e-06
 Reference value :  4.25570e-06
 Reference value :  4.25770e-06
 Reference value :  4.25953e-06
 Reference value :  4.27455e-06
 Reference value :  4.30838e-06
 Reference value :  4.31968e-06
 Reference value :  4.34303e-06
 Reference value :  4.40111e-06
 Reference value :  4.50000e-06
 Reference value :  4.50007e-06
 Reference value :  4.50011e-06
 Reference value :  4.50022e-06
 Reference value :  4.50059e-06
 Reference value :  4.50196e-06
 Reference value :  4.50297e-06
 Reference value :  4.50350e-06
 Reference value :  4.50490e-06
 Reference value :  4.50642e-06
 Reference value :  4.50828e-06
 Reference value :  4.51021e-06
 Reference value :  4.51127e-06
 Reference value :  4.51895e-06
 Reference value :  4.63003e-06
 Reference value :  4.75011e-06
 Reference value :  4.75017e-06
 Reference value :  4.75021e-06
 Reference value :  4.75026e-06
 Reference value :  4.75054e-06
 Reference value :  4.75099e-06
 Reference value :  4.75245e-06
 Reference value :  4.75382e-06
 Reference value :  4.75440e-06
 Reference value :  4.75567e-06
 Reference value :  4.75643e-06
 Reference value :  4.76117e-06
 Reference value :  4.78305e-06
 Reference value :  4.85345e-06
 Reference value :  5.00000e-06
 Reference value :  5.00001e-06
 Reference value :  5.00007e-06
 Reference value :  5.00012e-06
 Reference value :  5.00035e-06
 Reference value :  5.00145e-06
 Reference value :  5.00245e-06
 Reference value :  5.00349e-06
 Reference value :  5.00466e-06
 Reference value :  5.00588e-06
 Reference value :  5.00872e-06
 Reference value :  5.01186e-06
 Reference value :  5.01441e-06
 Reference value :  5.01633e-06
 Reference value :  5.02004e-06
 Reference value :  5.02814e-06
 Reference value :  5.04448e-06
 Reference value :  5.05422e-06
 Reference value :  5.07360e-06
 Reference value :  5.13572e-06
 Reference value :  5.25011e-06
 Reference value :  5.25020e-06
 Reference value :  5.25025e-06
 Reference value :  5.25054e-06
 Reference value :  5.25097e-06
 Reference value :  5.25193e-06
 Reference value :  5.25308e-06
 Reference value :  5.25432e-06
 Reference value :  5.25636e-06
 Reference value :  5.26107e-06
 Reference value :  5.30254e-06
 Reference value :  5.50001e-06
 Reference value :  5.50011e-06
 Reference value :  5.50022e-06
 Reference value :  5.50093e-06
 Reference value :  5.50196e-06
 Reference value :  5.50293e-06
 Reference value :  5.50405e-06
 Reference value :  5.50560e-06
 Reference value :  5.50743e-06
 Reference value :  5.50928e-06
 Reference value :  5.51138e-06
 Reference value :  5.52554e-06
 Reference value :  5.68782e-06
 Reference value :  5.75013e-06
 Reference value :  5.75021e-06
 Reference value :  5.75026e-06
 Reference value :  5.75054e-06
 Reference value :  5.75147e-06
 Reference value :  5.75245e-06
 Reference value :  5.75382e-06
 Reference value :  5.75503e-06
 Reference value :  5.75644e-06
 Reference value :  5.75904e-06
 Reference value :  5.76406e-06
 Reference value :  5.79482e-06
 Reference value :  5.92151e-06
 Reference value :  6.00003e-06
 Reference value :  6.00011e-06
 Reference value :  6.00022e-06
 Reference value :  6.00093e-06
 Reference value :  6.00245e-06
 Reference value :  6.00350e-06
 Reference value :  6.00459e-06
 Reference value :  6.00583e-06
 Reference value :  6.00816e-06
 Reference value :  6.01066e-06
 Reference value :  6.01294e-06
 Reference value :  6.01457e-06
 Reference value :  6.01655e-06
 Reference value :  6.01995e-06
 Reference value :  6.02946e-06
 Reference value :  6.04197e-06
 Reference value :  6.07418e-06
 Reference value :  6.16321e-06
 Reference value :  6.25010e-06
 Reference value :  6.25017e-06
 Reference value :  6.25022e-06
 Reference value :  6.25032e-06
 Reference value :  6.25071e-06
 Reference value :  6.25193e-06
 Reference value :  6.25309e-06
 Reference value :  6.25433e-06
 Reference value :  6.25632e-06
 Reference value :  6.26423e-06
 Reference value :  6.34263e-06
 Reference value :  6.50003e-06
 Reference value :  6.50012e-06
 Reference value :  6.50035e-06
 Reference value :  6.50093e-06
 Reference value :  6.50196e-06
 Reference value :  6.50243e-06
 Reference value :  6.50347e-06
 Reference value :  6.50471e-06
 Reference value :  6.50648e-06
 Reference value :  6.50836e-06
 Reference value :  6.51026e-06
 Reference value :  6.51261e-06
 Reference value :  6.52549e-06
 Reference value :  6.60155e-06
 Reference value :  6.75011e-06
 Reference value :  6.75020e-06
 Reference value :  6.75026e-06
 Reference value :  6.75054e-06
 Reference value :  6.75147e-06
 Reference value :  6.75311e-06
 Reference value :  6.75440e-06
 Reference value :  6.75567e-06
 Reference value :  6.75726e-06
 Reference value :  6.75904e-06
 Reference value :  6.76405e-06
 Reference value :  6.78091e-06
 Reference value :  6.85135e-06
 Reference value :  7.00001e-06
 Reference value :  7.00007e-06
 Reference value :  7.00011e-06
 Reference value :  7.00016e-06
 Reference value :  7.00035e-06
 Reference value :  7.00093e-06
 Reference value :  7.00245e-06
 Reference value :  7.00350e-06
 Reference value :  7.00459e-06
 Reference value :  7.00583e-06
 Reference value :  7.00816e-06
 Reference value :  7.01066e-06
 Reference value :  7.01294e-06
 Reference value :  7.01378e-06
 Reference value :  7.01554e-06
 Reference value :  7.01870e-06
 Reference value :  7.02438e-06
 Reference value :  7.05526e-06
 Reference value :  7.06620e-06
 Reference value :  7.07362e-06
 Reference value :  7.09099e-06
 Reference value :  7.12302e-06
 Reference value :  7.19482e-06
 Reference value :  7.25017e-06
 Reference value :  7.25026e-06
 Reference value :  7.25054e-06
 Reference value :  7.25143e-06
 Reference value :  7.25241e-06
 Reference value :  7.25381e-06
 Reference value :  7.25435e-06
 Reference value :  7.25556e-06
 Reference value :  7.25718e-06
 Reference value :  7.27011e-06
 Reference value :  7.34337e-06
 Reference value :  7.50001e-06
 Reference value :  7.50007e-06
 Reference value :  7.50012e-06
 Reference value :  7.50035e-06
 Reference value :  7.50093e-06
 Reference value :  7.50196e-06
 Reference value :  7.50297e-06
 Reference value :  7.50350e-06
 Reference value :  7.50490e-06
 Reference value :  7.50641e-06
 Reference value :  7.50828e-06
 Reference value :  7.51020e-06
 Reference value :  7.51486e-06
 Reference value :  7.57295e-06
 Reference value :  7.75013e-06
 Reference value :  7.75021e-06
 Reference value :  7.75032e-06
 Reference value :  7.75074e-06
 Reference value :  7.75194e-06
 Reference value :  7.75311e-06
 Reference value :  7.75440e-06
 Reference value :  7.75643e-06
 Reference value :  7.76116e-06
 Reference value :  7.78294e-06
 Reference value :  8.00000e-06
 Reference value :  8.00007e-06
 Reference value :  8.00012e-06
 Reference value :  8.00035e-06
 Reference value :  8.00093e-06
 Reference value :  8.00245e-06
 Reference value :  8.00349e-06
 Reference value :  8.00466e-06
 Reference value :  8.00588e-06
 Reference value :  8.00739e-06
 Reference value :  8.00899e-06
 Reference value :  8.01313e-06
 Reference value :  8.07589e-06
 Reference value :  8.25011e-06
 Reference value :  8.25017e-06
 Reference value :  8.25021e-06
 Reference value :  8.25026e-06
 Reference value :  8.25044e-06
 Reference value :  8.25079e-06
 Reference value :  8.25160e-06
 Reference value :  8.25256e-06
 Reference value :  8.25404e-06
 Reference value :  8.25596e-06
 Reference value :  8.25853e-06
 Reference value :  8.26795e-06
 Reference value :  8.33502e-06
 Reference value :  8.50001e-06
 Reference value :  8.50007e-06
 Reference value :  8.50012e-06
 Reference value :  8.50022e-06
 Reference value :  8.50060e-06
 Reference value :  8.50143e-06
 Reference value :  8.50244e-06
 Reference value :  8.50297e-06
 Reference value :  8.50357e-06
 Reference value :  8.50489e-06
 Reference value :  8.50631e-06
 Reference value :  8.51027e-06
 Reference value :  8.52614e-06
 Reference value :  8.53072e-06
 Reference value :  8.53816e-06
 Reference value :  8.54078e-06
 Reference value :  8.54629e-06
 Reference value :  8.55003e-06
 Reference value :  8.56168e-06
 Reference value :  8.59938e-06
 Reference value :  8.66492e-06
 Reference value :  8.75011e-06
 Reference value :  8.75017e-06
 Reference value :  8.75022e-06
 Reference value :  8.75045e-06
 Reference value :  8.75127e-06
 Reference value :  8.75216e-06
 Reference value :  8.75350e-06
 Reference value :  8.75401e-06
 Reference value :  8.75523e-06
 Reference value :  8.75596e-06
 Reference value :  8.75827e-06
 Reference value :  8.77599e-06
 Reference value :  8.88792e-06
 Reference value :  9.00003e-06
 Reference value :  9.00011e-06
 Reference value :  9.00022e-06
 Reference value :  9.00052e-06
 Reference value :  9.00131e-06
 Reference value :  9.00278e-06
 Reference value :  9.00390e-06
 Reference value :  9.00548e-06
 Reference value :  9.00757e-06
 Reference value :  9.00985e-06
 Reference value :  9.01109e-06
 Reference value :  9.01366e-06
 Reference value :  9.01711e-06
 Reference value :  9.02694e-06
 Reference value :  9.10650e-06
 Reference value :  9.25011e-06
 Reference value :  9.25020e-06
 Reference value :  9.25026e-06
 Reference value :  9.25060e-06
 Reference value :  9.25170e-06
 Reference value :  9.25349e-06
 Reference value :  9.25460e-06
 Reference value :  9.25598e-06
 Reference value :  9.26019e-06
 Reference value :  9.27728e-06
 Reference value :  9.38492e-06
 Reference value :  9.50001e-06
 Reference value :  9.50007e-06
 Reference value :  9.50011e-06
 Reference value :  9.50016e-06
 Reference value :  9.50034e-06
 Reference value :  9.50131e-06
 Reference value :  9.50278e-06
 Reference value :  9.50390e-06
 Reference value :  9.50521e-06
 Reference value :  9.50585e-06
 Reference value :  9.50748e-06
 Reference value :  9.51005e-06
 Reference value :  9.51274e-06
 Reference value :  9.51468e-06
 Reference value :  9.51582e-06
 Reference value :  9.51683e-06
 Reference value :  9.51906e-06
 Reference value :  9.52237e-06
 Reference value :  9.53035e-06
 Reference value :  9.54647e-06
 Reference value :  9.56125e-06
 Reference value :  9.56684e-06
 Reference value :  9.57121e-06
 Reference value :  9.58225e-06
 Reference value :  9.59501e-06
 Reference value :  9.61269e-06
 Reference value :  9.66604e-06
 Reference value :  9.75011e-06
 Reference value :  9.75017e-06
 Reference value :  9.75021e-06
 Reference value :  9.75026e-06
 Reference value :  9.75060e-06
 Reference value :  9.75127e-06
 Reference value :  9.75216e-06
 Reference value :  9.75346e-06
 Reference value :  9.75453e-06
 Reference value :  9.75584e-06
 Reference value :  9.75981e-06
 Reference value :  9.77441e-06
 Reference value :  9.82121e-06
 Reference value :  1.00000e-05
 Reference value :  1.00001e-05
 Reference value :  1.00001e-05
 Reference value :  1.00002e-05
 Reference value :  1.00003e-05
 Reference value :  1.00009e-05
 Reference value :  1.00017e-05
 Reference value :  1.00022e-05
 Reference value :  1.00032e-05
 Reference value :  1.00044e-05
 Reference value :  1.00052e-05
 Reference value :  1.00067e-05
 Reference value :  1.00083e-05
 Reference value :  1.00103e-05
 Reference value :  1.00179e-05
 Reference value :  1.01389e-05
 Reference value :  1.02501e-05
 Reference value :  1.02502e-05
 Reference value :  1.02503e-05
 Reference value :  1.02508e-05
 Reference value :  1.02517e-05
 Reference value :  1.02527e-05
 Reference value :  1.02540e-05
 Reference value :  1.02553e-05
 Reference value :  1.02568e-05
 Reference value :  1.02587e-05
 Reference value :  1.02635e-05
 Reference value :  1.02802e-05
 Reference value :  1.04145e-05
 Reference value :  1.05000e-05
 Reference value :  1.05001e-05
 Reference value :  1.05002e-05
 Reference value :  1.05005e-05
 Reference value :  1.05013e-05
 Reference value :  1.05028e-05
 Reference value :  1.05039e-05
 Reference value :  1.05058e-05
 Reference value :  1.05083e-05
 Reference value :  1.05105e-05
 Reference value :  1.05127e-05
 Reference value :  1.05143e-05
 Reference value :  1.05163e-05
 Reference value :  1.05184e-05
 Reference value :  1.05276e-05
 Reference value :  1.06136e-05
 Reference value :  1.06980e-05
 Reference value :  1.07470e-05
 Reference value :  1.07501e-05
 Reference value :  1.07502e-05
 Reference value :  1.07503e-05
 Reference value :  1.07506e-05
 Reference value :  1.07517e-05
 Reference value :  1.07535e-05
 Reference value :  1.07546e-05
 Reference value :  1.07560e-05
 Reference value :  1.07631e-05
 Reference value :  1.07917e-05
 Reference value :  1.08379e-05
 Reference value :  1.08778e-05
 Reference value :  1.09886e-05
 Reference value :  1.10000e-05
 Reference value :  1.10001e-05
 Reference value :  1.10003e-05
 Reference value :  1.10009e-05
 Reference value :  1.10018e-05
 Reference value :  1.10032e-05
 Reference value :  1.10044e-05
 Reference value :  1.10060e-05
 Reference value :  1.10067e-05
 Reference value :  1.10083e-05
 Reference value :  1.10115e-05
 Reference value :  1.10258e-05
 Reference value :  1.12501e-05
 Reference value :  1.12501e-05
 Reference value :  1.12502e-05
 Reference value :  1.12503e-05
 Reference value :  1.12506e-05
 Reference value :  1.12513e-05
 Reference value :  1.12521e-05
 Reference value :  1.12535e-05
 Reference value :  1.12546e-05
 Reference value :  1.12560e-05
 Reference value :  1.12568e-05
 Reference value :  1.12587e-05
 Reference value :  1.12634e-05
 Reference value :  1.12802e-05
 Reference value :  1.13536e-05
 Reference value :  1.15000e-05
 Reference value :  1.15001e-05
 Reference value :  1.15002e-05
 Reference value :  1.15005e-05
 Reference value :  1.15013e-05
 Reference value :  1.15023e-05
 Reference value :  1.15033e-05
 Reference value :  1.15046e-05
 Reference value :  1.15058e-05
 Reference value :  1.15073e-05
 Reference value :  1.15105e-05
 Reference value :  1.15115e-05
 Reference value :  1.15135e-05
 Reference value :  1.15153e-05
 Reference value :  1.15183e-05
 Reference value :  1.15208e-05
 Reference value :  1.15358e-05
 Reference value :  1.15426e-05
 Reference value :  1.15483e-05
 Reference value :  1.15511e-05
 Reference value :  1.15568e-05
 Reference value :  1.15710e-05
 Reference value :  1.16246e-05
 Reference value :  1.17501e-05
 Reference value :  1.17502e-05
 Reference value :  1.17503e-05
 Reference value :  1.17506e-05
 Reference value :  1.17517e-05
 Reference value :  1.17527e-05
 Reference value :  1.17535e-05
 Reference value :  1.17540e-05
 Reference value :  1.17553e-05
 Reference value :  1.17560e-05
 Reference value :  1.17602e-05
 Reference value :  1.17768e-05
 Reference value :  1.20000e-05
 Reference value :  1.20001e-05
 Reference value :  1.20001e-05
 Reference value :  1.20003e-05
 Reference value :  1.20009e-05
 Reference value :  1.20018e-05
 Reference value :  1.20028e-05
 Reference value :  1.20033e-05
 Reference value :  1.20045e-05
 Reference value :  1.20064e-05
 Reference value :  1.20071e-05
 Reference value :  1.20089e-05
 Reference value :  1.20109e-05
 Reference value :  1.20179e-05
 Reference value :  1.20519e-05
 Reference value :  1.21568e-05
 Reference value :  1.22501e-05
 Reference value :  1.22502e-05
 Reference value :  1.22502e-05
 Reference value :  1.22503e-05
 Reference value :  1.22504e-05
 Reference value :  1.22508e-05
 Reference value :  1.22517e-05
 Reference value :  1.22527e-05
 Reference value :  1.22535e-05
 Reference value :  1.22540e-05
 Reference value :  1.22553e-05
 Reference value :  1.22569e-05
 Reference value :  1.22602e-05
 Reference value :  1.22677e-05
 Reference value :  1.22922e-05
 Reference value :  1.25000e-05
 Reference value :  1.25000e-05
 Reference value :  1.25001e-05
 Reference value :  1.25001e-05
 Reference value :  1.25002e-05
 Reference value :  1.25005e-05
 Reference value :  1.25013e-05
 Reference value :  1.25023e-05
 Reference value :  1.25033e-05
 Reference value :  1.25045e-05
 Reference value :  1.25059e-05
 Reference value :  1.25065e-05
 Reference value :  1.25085e-05
 Reference value :  1.25101e-05
 Reference value :  1.25129e-05
 Reference value :  1.25139e-05
 Reference value :  1.25160e-05
 Reference value :  1.25170e-05
 Reference value :  1.25192e-05
 Reference value :  1.25250e-05
 Reference value :  1.25358e-05
 Reference value :  1.25482e-05
 Reference value :  1.25557e-05
 Reference value :  1.25609e-05
 Reference value :  1.25727e-05
 Reference value :  1.25847e-05
 Reference value :  1.26208e-05
 Reference value :  1.27410e-05
 Reference value :  1.27501e-05
 Reference value :  1.27502e-05
 Reference value :  1.27503e-05
 Reference value :  1.27505e-05
 Reference value :  1.27515e-05
 Reference value :  1.27531e-05
 Reference value :  1.27544e-05
 Reference value :  1.27557e-05
 Reference value :  1.27577e-05
 Reference value :  1.27661e-05
 Reference value :  1.27893e-05
 Reference value :  1.28048e-05
 Reference value :  1.28251e-05
 Reference value :  1.28608e-05
 Reference value :  1.30000e-05
 Reference value :  1.30001e-05
 Reference value :  1.30002e-05
 Reference value :  1.30003e-05
 Reference value :  1.30009e-05
 Reference value :  1.30020e-05
 Reference value :  1.30024e-05
 Reference value :  1.30035e-05
 Reference value :  1.30049e-05
 Reference value :  1.30064e-05
 Reference value :  1.30083e-05
 Reference value :  1.30102e-05
 Reference value :  1.30113e-05
 Reference value :  1.30149e-05
 Reference value :  1.30265e-05
 Reference value :  1.31255e-05
 Reference value :  1.32501e-05
 Reference value :  1.32502e-05
 Reference value :  1.32503e-05
 Reference value :  1.32505e-05
 Reference value :  1.32515e-05
 Reference value :  1.32524e-05
 Reference value :  1.32538e-05
 Reference value :  1.32550e-05
 Reference value :  1.32564e-05
 Reference value :  1.32589e-05
 Reference value :  1.32707e-05
 Reference value :  1.33510e-05
 Reference value :  1.35000e-05
 Reference value :  1.35001e-05
 Reference value :  1.35001e-05
 Reference value :  1.35003e-05
 Reference value :  1.35009e-05
 Reference value :  1.35024e-05
 Reference value :  1.35035e-05
 Reference value :  1.35047e-05
 Reference value :  1.35059e-05
 Reference value :  1.35087e-05
 Reference value :  1.35119e-05
 Reference value :  1.35144e-05
 Reference value :  1.35163e-05
 Reference value :  1.35200e-05
 Reference value :  1.35281e-05
 Reference value :  1.35444e-05
 Reference value :  1.35540e-05
 Reference value :  1.35735e-05
 Reference value :  1.36071e-05
 Reference value :  1.37501e-05
 Reference value :  1.37502e-05
 Reference value :  1.37503e-05
 Reference value :  1.37507e-05
 Reference value :  1.37519e-05
 Reference value :  1.37538e-05
 Reference value :  1.37549e-05
 Reference value :  1.37564e-05
 Reference value :  1.37644e-05
 Reference value :  1.38423e-05
 Reference value :  1.40000e-05
 Reference value :  1.40001e-05
 Reference value :  1.40002e-05
 Reference value :  1.40009e-05
 Reference value :  1.40020e-05
 Reference value :  1.40029e-05
 Reference value :  1.40041e-05
 Reference value :  1.40056e-05
 Reference value :  1.40065e-05
 Reference value :  1.40084e-05
 Reference value :  1.40093e-05
 Reference value :  1.40114e-05
 Reference value :  1.40187e-05
 Reference value :  1.41010e-05
 Reference value :  1.42501e-05
 Reference value :  1.42502e-05
 Reference value :  1.42503e-05
 Reference value :  1.42505e-05
 Reference value :  1.42515e-05
 Reference value :  1.42531e-05
 Reference value :  1.42544e-05
 Reference value :  1.42564e-05
 Reference value :  1.42590e-05
 Reference value :  1.42641e-05
 Reference value :  1.42809e-05
 Reference value :  1.43516e-05
 Reference value :  1.45000e-05
 Reference value :  1.45001e-05
 Reference value :  1.45001e-05
 Reference value :  1.45003e-05
 Reference value :  1.45009e-05
 Reference value :  1.45020e-05
 Reference value :  1.45030e-05
 Reference value :  1.45035e-05
 Reference value :  1.45046e-05
 Reference value :  1.45058e-05
 Reference value :  1.45073e-05
 Reference value :  1.45097e-05
 Reference value :  1.45107e-05
 Reference value :  1.45129e-05
 Reference value :  1.45146e-05
 Reference value :  1.45155e-05
 Reference value :  1.45175e-05
 Reference value :  1.45199e-05
 Reference value :  1.45243e-05
 Reference value :  1.45353e-05
 Reference value :  1.45495e-05
 Reference value :  1.45739e-05
 Reference value :  1.46344e-05
 Reference value :  1.46630e-05
 Reference value :  1.47225e-05
 Reference value :  1.47501e-05
 Reference value :  1.47502e-05
 Reference value :  1.47502e-05
 Reference value :  1.47503e-05
 Reference value :  1.47505e-05
 Reference value :  1.47514e-05
 Reference value :  1.47524e-05
 Reference value :  1.47538e-05
 Reference value :  1.47550e-05
 Reference value :  1.47563e-05
 Reference value :  1.47588e-05
 Reference value :  1.47700e-05
 Reference value :  1.48423e-05
 Reference value :  1.50000e-05
 Reference value :  1.50001e-05
 Reference value :  1.50001e-05
 Reference value :  1.50002e-05
 Reference value :  1.50009e-05
 Reference value :  1.50020e-05
 Reference value :  1.50029e-05
 Reference value :  1.50041e-05
 Reference value :  1.50056e-05
 Reference value :  1.50074e-05
 Reference value :  1.50093e-05
 Reference value :  1.50114e-05
 Reference value :  1.50187e-05
 Reference value :  1.50587e-05
 Reference value :  1.52501e-05
 Reference value :  1.52502e-05
 Reference value :  1.52502e-05
 Reference value :  1.52504e-05
 Reference value :  1.52510e-05
 Reference value :  1.52524e-05
 Reference value :  1.52544e-05
 Reference value :  1.52564e-05
 Reference value :  1.52581e-05
 Reference value :  1.52619e-05
 Reference value :  1.52729e-05
 Reference value :  1.53165e-05
 Reference value :  1.55000e-05
 Reference value :  1.55013e-05
 Reference value :  1.55039e-05
 Reference value :  1.55052e-05
 Reference value :  1.55077e-05
 Reference value :  1.55102e-05
 Reference value :  1.55112e-05
 Reference value :  1.55134e-05
 Reference value :  1.55142e-05
 Reference value :  1.55162e-05
 Reference value :  1.55182e-05
 Reference value :  1.55225e-05
 Reference value :  1.55447e-05
 Reference value :  1.55760e-05
 Reference value :  1.55877e-05
 Reference value :  1.56303e-05
 Reference value :  1.56753e-05
 Reference value :  1.57501e-05
 Reference value :  1.57502e-05
 Reference value :  1.57503e-05
 Reference value :  1.57504e-05
 Reference value :  1.57507e-05
 Reference value :  1.57511e-05
 Reference value :  1.57519e-05
 Reference value :  1.57529e-05
 Reference value :  1.57543e-05
 Reference value :  1.57563e-05
 Reference value :  1.57607e-05
 Reference value :  1.57793e-05
 Reference value :  1.59699e-05
 Reference value :  1.60000e-05
 Reference value :  1.60001e-05
 Reference value :  1.60002e-05
 Reference value :  1.60006e-05
 Reference value :  1.60015e-05
 Reference value :  1.60024e-05
 Reference value :  1.60035e-05
 Reference value :  1.60049e-05
 Reference value :  1.60064e-05
 Reference value :  1.60083e-05
 Reference value :  1.60102e-05
 Reference value :  1.60124e-05
 Reference value :  1.60269e-05
 Reference value :  1.61338e-05
 Reference value :  1.62501e-05
 Reference value :  1.62502e-05
 Reference value :  1.62504e-05
 Reference value :  1.62510e-05
 Reference value :  1.62519e-05
 Reference value :  1.62531e-05
 Reference value :  1.62544e-05
 Reference value :  1.62557e-05
 Reference value :  1.62573e-05
 Reference value :  1.62645e-05
 Reference value :  1.63054e-05
 Reference value :  1.65000e-05
 Reference value :  1.65001e-05
 Reference value :  1.65001e-05
 Reference value :  1.65003e-05
 Reference value :  1.65015e-05
 Reference value :  1.65024e-05
 Reference value :  1.65035e-05
 Reference value :  1.65047e-05
 Reference value :  1.65059e-05
 Reference value :  1.65081e-05
 Reference value :  1.65100e-05
 Reference value :  1.65131e-05
 Reference value :  1.65424e-05
 Reference value :  1.67501e-05
 Reference value :  1.67502e-05
 Reference value :  1.67503e-05
 Reference value :  1.67504e-05
 Reference value :  1.67508e-05
 Reference value :  1.67520e-05
 Reference value :  1.67533e-05
 Reference value :  1.67550e-05
 Reference value :  1.67569e-05
 Reference value :  1.67602e-05
 Reference value :  1.67775e-05
 Reference value :  1.69117e-05
 Reference value :  1.70015e-05
 Reference value :  1.70060e-05
 Reference value :  1.70111e-05
 Reference value :  1.70205e-05
 Reference value :  1.70253e-05
 Reference value :  1.70287e-05
 Reference value :  1.70314e-05
 Reference value :  1.70338e-05
 Reference value :  1.70371e-05
 Reference value :  1.70399e-05
 Reference value :  1.70472e-05
 Reference value :  1.70612e-05
 Reference value :  1.70969e-05
 Reference value :  1.72486e-05
 Reference value :  1.72501e-05
 Reference value :  1.72502e-05
 Reference value :  1.72503e-05
 Reference value :  1.72506e-05
 Reference value :  1.72513e-05
 Reference value :  1.72521e-05
 Reference value :  1.72534e-05
 Reference value :  1.72545e-05
 Reference value :  1.72559e-05
 Reference value :  1.72599e-05
 Reference value :  1.72747e-05
 Reference value :  1.73861e-05
 Reference value :  1.75000e-05
 Reference value :  1.75001e-05
 Reference value :  1.75002e-05
 Reference value :  1.75009e-05
 Reference value :  1.75018e-05
 Reference value :  1.75033e-05
 Reference value :  1.75045e-05
 Reference value :  1.75064e-05
 Reference value :  1.75076e-05
 Reference value :  1.75111e-05
 Reference value :  1.75137e-05
 Reference value :  1.75191e-05
 Reference value :  1.75345e-05
 Reference value :  1.76785e-05
 Reference value :  1.77501e-05
 Reference value :  1.77502e-05
 Reference value :  1.77503e-05
 Reference value :  1.77508e-05
 Reference value :  1.77517e-05
 Reference value :  1.77527e-05
 Reference value :  1.77540e-05
 Reference value :  1.77553e-05
 Reference value :  1.77580e-05
 Reference value :  1.77773e-05
 Reference value :  1.80000e-05
 Reference value :  1.80021e-05
 Reference value :  1.80084e-05
 Reference value :  1.80121e-05
 Reference value :  1.80147e-05
 Reference value :  1.80173e-05
 Reference value :  1.80224e-05
 Reference value :  1.80389e-05
 Reference value :  1.80476e-05
 Reference value :  1.80623e-05
 Reference value :  1.80715e-05
 Reference value :  1.80875e-05
 Reference value :  1.81267e-05
 Reference value :  1.82501e-05
 Reference value :  1.82502e-05
 Reference value :  1.82502e-05
 Reference value :  1.82504e-05
 Reference value :  1.82513e-05
 Reference value :  1.82522e-05
 Reference value :  1.82532e-05
 Reference value :  1.82541e-05
 Reference value :  1.82551e-05
 Reference value :  1.82567e-05
 Reference value :  1.82629e-05
 Reference value :  1.83258e-05
 Reference value :  1.85000e-05
 Reference value :  1.85001e-05
 Reference value :  1.85002e-05
 Reference value :  1.85005e-05
 Reference value :  1.85013e-05
 Reference value :  1.85022e-05
 Reference value :  1.85032e-05
 Reference value :  1.85052e-05
 Reference value :  1.85067e-05
 Reference value :  1.85083e-05
 Reference value :  1.85115e-05
 Reference value :  1.85251e-05
 Reference value :  1.87497e-05
 Reference value :  1.87501e-05
 Reference value :  1.87502e-05
 Reference value :  1.87503e-05
 Reference value :  1.87508e-05
 Reference value :  1.87517e-05
 Reference value :  1.87535e-05
 Reference value :  1.87540e-05
 Reference value :  1.87553e-05
 Reference value :  1.87568e-05
 Reference value :  1.87587e-05
 Reference value :  1.87617e-05
 Reference value :  1.87722e-05
 Reference value :  1.87945e-05
 Reference value :  1.89136e-05
 Reference value :  1.90000e-05
 Reference value :  1.90001e-05
 Reference value :  1.90002e-05
 Reference value :  1.90009e-05
 Reference value :  1.90023e-05
 Reference value :  1.90033e-05
 Reference value :  1.90046e-05
 Reference value :  1.90058e-05
 Reference value :  1.90083e-05
 Reference value :  1.90094e-05
 Reference value :  1.90115e-05
 Reference value :  1.90135e-05
 Reference value :  1.90153e-05
 Reference value :  1.90173e-05
 Reference value :  1.90196e-05
 Reference value :  1.90275e-05
 Reference value :  1.90718e-05
 Reference value :  1.91973e-05
 Reference value :  1.92470e-05
 Reference value :  1.92501e-05
 Reference value :  1.92502e-05
 Reference value :  1.92502e-05
 Reference value :  1.92503e-05
 Reference value :  1.92506e-05
 Reference value :  1.92513e-05
 Reference value :  1.92522e-05
 Reference value :  1.92527e-05
 Reference value :  1.92535e-05
 Reference value :  1.92540e-05
 Reference value :  1.92552e-05
 Reference value :  1.92567e-05
 Reference value :  1.92601e-05
 Reference value :  1.92675e-05
 Reference value :  1.93072e-05
 Reference value :  1.93319e-05
 Reference value :  1.93735e-05
 Reference value :  1.94174e-05
 Reference value :  1.95000e-05
 Reference value :  1.95009e-05
 Reference value :  1.95037e-05
 Reference value :  1.95058e-05
 Reference value :  1.95079e-05
 Reference value :  1.95100e-05
 Reference value :  1.95125e-05
 Reference value :  1.95254e-05
 Reference value :  1.95886e-05
 Reference value :  1.97501e-05
 Reference value :  1.97502e-05
 Reference value :  1.97502e-05
 Reference value :  1.97503e-05
 Reference value :  1.97506e-05
 Reference value :  1.97517e-05
 Reference value :  1.97527e-05
 Reference value :  1.97539e-05
 Reference value :  1.97551e-05
 Reference value :  1.97566e-05
 Reference value :  1.97575e-05
 Reference value :  1.97585e-05
 Reference value :  1.97610e-05
 Reference value :  1.97656e-05
 Reference value :  1.97804e-05
 Reference value :  1.99185e-05
 Reference value :  2.00000e-05
 Reference value :  2.00001e-05
 Reference value :  2.00001e-05
 Reference value :  2.00002e-05
 Reference value :  2.00009e-05
 Reference value :  2.00018e-05
 Reference value :  2.00028e-05
 Reference value :  2.00033e-05
 Reference value :  2.00039e-05
 Reference value :  2.00052e-05
 Reference value :  2.00058e-05
 Reference value :  2.00073e-05
 Reference value :  2.00094e-05
 Reference value :  2.00115e-05
 Reference value :  2.00127e-05
 Reference value :  2.00135e-05
 Reference value :  2.00153e-05
 Reference value :  2.00172e-05
 Reference value :  2.00184e-05
 Reference value :  2.00233e-05
 Reference value :  2.00412e-05
 Reference value :  2.00477e-05
 Reference value :  2.00514e-05
 Reference value :  2.00590e-05
 Reference value :  2.00692e-05
 Reference value :  2.00834e-05
 Reference value :  2.01119e-05
 Reference value :  2.02177e-05
 Reference value :  2.02501e-05
 Reference value :  2.02502e-05
 Reference value :  2.02502e-05
 Reference value :  2.02504e-05
 Reference value :  2.02508e-05
 Reference value :  2.02517e-05
 Reference value :  2.02527e-05
 Reference value :  2.02535e-05
 Reference value :  2.02540e-05
 Reference value :  2.02546e-05
 Reference value :  2.02560e-05
 Reference value :  2.02583e-05
 Reference value :  2.02675e-05
 Reference value :  2.03268e-05
 Reference value :  2.05020e-05
 Reference value :  2.05059e-05
 Reference value :  2.05079e-05
 Reference value :  2.05122e-05
 Reference value :  2.05163e-05
 Reference value :  2.05279e-05
 Reference value :  2.05639e-05
 Reference value :  2.06348e-05
 Reference value :  2.07501e-05
 Reference value :  2.07502e-05
 Reference value :  2.07502e-05
 Reference value :  2.07503e-05
 Reference value :  2.07504e-05
 Reference value :  2.07508e-05
 Reference value :  2.07521e-05
 Reference value :  2.07527e-05
 Reference value :  2.07536e-05
 Reference value :  2.07547e-05
 Reference value :  2.07560e-05
 Reference value :  2.07583e-05
 Reference value :  2.07673e-05
 Reference value :  2.08279e-05
 Reference value :  2.10000e-05
 Reference value :  2.10001e-05
 Reference value :  2.10001e-05
 Reference value :  2.10002e-05
 Reference value :  2.10003e-05
 Reference value :  2.10009e-05
 Reference value :  2.10018e-05
 Reference value :  2.10028e-05
 Reference value :  2.10033e-05
 Reference value :  2.10045e-05
 Reference value :  2.10059e-05
 Reference value :  2.10075e-05
 Reference value :  2.10101e-05
 Reference value :  2.10129e-05
 Reference value :  2.10139e-05
 Reference value :  2.10161e-05
 Reference value :  2.10171e-05
 Reference value :  2.10213e-05
 Reference value :  2.10319e-05
 Reference value :  2.10553e-05
 Reference value :  2.10673e-05
 Reference value :  2.10732e-05
 Reference value :  2.10923e-05
 Reference value :  2.11765e-05
 Reference value :  2.12501e-05
 Reference value :  2.12502e-05
 Reference value :  2.12503e-05
 Reference value :  2.12505e-05
 Reference value :  2.12515e-05
 Reference value :  2.12531e-05
 Reference value :  2.12544e-05
 Reference value :  2.12566e-05
 Reference value :  2.12618e-05
 Reference value :  2.12739e-05
 Reference value :  2.13011e-05
 Reference value :  2.13197e-05
 Reference value :  2.13420e-05
 Reference value :  2.13979e-05
 Reference value :  2.15000e-05
 Reference value :  2.15001e-05
 Reference value :  2.15001e-05
 Reference value :  2.15003e-05
 Reference value :  2.15009e-05
 Reference value :  2.15024e-05
 Reference value :  2.15035e-05
 Reference value :  2.15049e-05
 Reference value :  2.15064e-05
 Reference value :  2.15083e-05
 Reference value :  2.15102e-05
 Reference value :  2.15125e-05
 Reference value :  2.15266e-05
 Reference value :  2.15696e-05
 Reference value :  2.17376e-05
 Reference value :  2.17501e-05
 Reference value :  2.17502e-05
 Reference value :  2.17502e-05
 Reference value :  2.17503e-05
 Reference value :  2.17504e-05
 Reference value :  2.17510e-05
 Reference value :  2.17519e-05
 Reference value :  2.17531e-05
 Reference value :  2.17544e-05
 Reference value :  2.17557e-05
 Reference value :  2.17564e-05
 Reference value :  2.17612e-05
 Reference value :  2.17707e-05
 Reference value :  2.18511e-05
 Reference value :  2.20011e-05
 Reference value :  2.20043e-05
 Reference value :  2.20063e-05
 Reference value :  2.20080e-05
 Reference value :  2.20106e-05
 Reference value :  2.20134e-05
 Reference value :  2.20155e-05
 Reference value :  2.20177e-05
 Reference value :  2.20200e-05
 Reference value :  2.20268e-05
 Reference value :  2.20408e-05
 Reference value :  2.20490e-05
 Reference value :  2.20582e-05
 Reference value :  2.20694e-05
 Reference value :  2.21194e-05
 Reference value :  2.22501e-05
 Reference value :  2.22502e-05
 Reference value :  2.22502e-05
 Reference value :  2.22503e-05
 Reference value :  2.22505e-05
 Reference value :  2.22509e-05
 Reference value :  2.22515e-05
 Reference value :  2.22524e-05
 Reference value :  2.22537e-05
 Reference value :  2.22548e-05
 Reference value :  2.22561e-05
 Reference value :  2.22604e-05
 Reference value :  2.22775e-05
 Reference value :  2.23732e-05
 Reference value :  2.25000e-05
 Reference value :  2.25001e-05
 Reference value :  2.25002e-05
 Reference value :  2.25006e-05
 Reference value :  2.25020e-05
 Reference value :  2.25029e-05
 Reference value :  2.25041e-05
 Reference value :  2.25056e-05
 Reference value :  2.25074e-05
 Reference value :  2.25093e-05
 Reference value :  2.25114e-05
 Reference value :  2.25255e-05
 Reference value :  2.26012e-05
 Reference value :  2.27501e-05
 Reference value :  2.27502e-05
 Reference value :  2.27502e-05
 Reference value :  2.27503e-05
 Reference value :  2.27504e-05
 Reference value :  2.27510e-05
 Reference value :  2.27519e-05
 Reference value :  2.27531e-05
 Reference value :  2.27538e-05
 Reference value :  2.27544e-05
 Reference value :  2.27557e-05
 Reference value :  2.27564e-05
 Reference value :  2.27590e-05
 Reference value :  2.27619e-05
 Reference value :  2.27729e-05
 Reference value :  2.28163e-05
 Reference value :  2.30000e-05
 Reference value :  2.30013e-05
 Reference value :  2.30039e-05
 Reference value :  2.30052e-05
 Reference value :  2.30078e-05
 Reference value :  2.30103e-05
 Reference value :  2.30124e-05
 Reference value :  2.30144e-05
 Reference value :  2.30163e-05
 Reference value :  2.30184e-05
 Reference value :  2.30210e-05
 Reference value :  2.30300e-05
 Reference value :  2.30620e-05
 Reference value :  2.31650e-05
 Reference value :  2.32501e-05
 Reference value :  2.32502e-05
 Reference value :  2.32502e-05
 Reference value :  2.32503e-05
 Reference value :  2.32507e-05
 Reference value :  2.32511e-05
 Reference value :  2.32515e-05
 Reference value :  2.32524e-05
 Reference value :  2.32537e-05
 Reference value :  2.32542e-05
 Reference value :  2.32555e-05
 Reference value :  2.32562e-05
 Reference value :  2.32607e-05
 Reference value :  2.32792e-05
 Reference value :  2.34706e-05
 Reference value :  2.35000e-05
 Reference value :  2.35001e-05
 Reference value :  2.35003e-05
 Reference value :  2.35015e-05
 Reference value :  2.35024e-05
 Reference value :  2.35035e-05
 Reference value :  2.35047e-05
 Reference value :  2.35065e-05
 Reference value :  2.35084e-05
 Reference value :  2.35103e-05
 Reference value :  2.35126e-05
 Reference value :  2.35375e-05
 Reference value :  2.36846e-05
 Reference value :  2.37501e-05
 Reference value :  2.37502e-05
 Reference value :  2.37503e-05
 Reference value :  2.37504e-05
 Reference value :  2.37507e-05
 Reference value :  2.37519e-05
 Reference value :  2.37531e-05
 Reference value :  2.37544e-05
 Reference value :  2.37557e-05
 Reference value :  2.37564e-05
 Reference value :  2.37581e-05
 Reference value :  2.37603e-05
 Reference value :  2.37641e-05
 Reference value :  2.37729e-05
 Reference value :  2.38163e-05
 Reference value :  2.40000e-05
 Reference value :  2.40001e-05
 Reference value :  2.40001e-05
 Reference value :  2.40003e-05
 Reference value :  2.40015e-05
 Reference value :  2.40024e-05
 Reference value :  2.40035e-05
 Reference value :  2.40046e-05
 Reference value :  2.40058e-05
 Reference value :  2.40082e-05
 Reference value :  2.40107e-05
 Reference value :  2.40129e-05
 Reference value :  2.40146e-05
 Reference value :  2.40155e-05
 Reference value :  2.40175e-05
 Reference value :  2.40219e-05
 Reference value :  2.40334e-05
 Reference value :  2.40555e-05
 Reference value :  2.40666e-05
 Reference value :  2.40740e-05
 Reference value :  2.40918e-05
 Reference value :  2.41404e-05
 Reference value :  2.42501e-05
 Reference value :  2.42502e-05
 Reference value :  2.42503e-05
 Reference value :  2.42505e-05
 Reference value :  2.42514e-05
 Reference value :  2.42524e-05
 Reference value :  2.42538e-05
 Reference value :  2.42543e-05
 Reference value :  2.42563e-05
 Reference value :  2.42610e-05
 Reference value :  2.43021e-05
 Reference value :  2.45000e-05
 Reference value :  2.45001e-05
 Reference value :  2.45001e-05
 Reference value :  2.45003e-05
 Reference value :  2.45009e-05
 Reference value :  2.45020e-05
 Reference value :  2.45030e-05
 Reference value :  2.45035e-05
 Reference value :  2.45049e-05
 Reference value :  2.45064e-05
 Reference value :  2.45083e-05
 Reference value :  2.45102e-05
 Reference value :  2.45112e-05
 Reference value :  2.45148e-05
 Reference value :  2.45270e-05
 Reference value :  2.46348e-05
 Reference value :  2.47501e-05
 Reference value :  2.47502e-05
 Reference value :  2.47502e-05
 Reference value :  2.47503e-05
 Reference value :  2.47505e-05
 Reference value :  2.47515e-05
 Reference value :  2.47524e-05
 Reference value :  2.47538e-05
 Reference value :  2.47544e-05
 Reference value :  2.47557e-05
 Reference value :  2.47573e-05
 Reference value :  2.47646e-05
 Reference value :  2.48054e-05
 Reference value :  2.50000e-05
 Reference value :  2.50000e-05
 Reference value :  2.50001e-05
 Reference value :  2.50001e-05
 Reference value :  2.50003e-05
 Reference value :  2.50009e-05
 Reference value :  2.50020e-05
 Reference value :  2.50030e-05
 Reference value :  2.50035e-05
 Reference value :  2.50047e-05
 Reference value :  2.50059e-05
 Reference value :  2.50074e-05
 Reference value :  2.50090e-05
 Reference value :  2.50110e-05
 Reference value :  2.50174e-05
 Reference value :  2.50759e-05
 Reference value :  2.51428e-05
 Reference value :  2.52501e-05
 Reference value :  2.52502e-05
 Reference value :  2.52502e-05
 Reference value :  2.52503e-05
 Reference value :  2.52506e-05
 Reference value :  2.52512e-05
 Reference value :  2.52520e-05
 Reference value :  2.52533e-05
 Reference value :  2.52550e-05
 Reference value :  2.52569e-05
 Reference value :  2.52585e-05
 Reference value :  2.52680e-05
 Reference value :  2.53350e-05
 Reference value :  2.55015e-05
 Reference value :  2.55060e-05
 Reference value :  2.55111e-05
 Reference value :  2.55205e-05
 Reference value :  2.55253e-05
 Reference value :  2.55287e-05
 Reference value :  2.55314e-05
 Reference value :  2.55338e-05
 Reference value :  2.55371e-05
 Reference value :  2.55399e-05
 Reference value :  2.55472e-05
 Reference value :  2.55546e-05
 Reference value :  2.55687e-05
 Reference value :  2.56161e-05
 Reference value :  2.57501e-05
 Reference value :  2.57502e-05
 Reference value :  2.57502e-05
 Reference value :  2.57504e-05
 Reference value :  2.57513e-05
 Reference value :  2.57527e-05
 Reference value :  2.57539e-05
 Reference value :  2.57559e-05
 Reference value :  2.57628e-05
 Reference value :  2.58224e-05
 Reference value :  2.60000e-05
 Reference value :  2.60001e-05
 Reference value :  2.60002e-05
 Reference value :  2.60009e-05
 Reference value :  2.60018e-05
 Reference value :  2.60028e-05
 Reference value :  2.60033e-05
 Reference value :  2.60045e-05
 Reference value :  2.60075e-05
 Reference value :  2.60099e-05
 Reference value :  2.60111e-05
 Reference value :  2.60137e-05
 Reference value :  2.60191e-05
 Reference value :  2.60346e-05
 Reference value :  2.61833e-05
 Reference value :  2.62501e-05
 Reference value :  2.62502e-05
 Reference value :  2.62503e-05
 Reference value :  2.62508e-05
 Reference value :  2.62521e-05
 Reference value :  2.62535e-05
 Reference value :  2.62540e-05
 Reference value :  2.62553e-05
 Reference value :  2.62580e-05
 Reference value :  2.62677e-05
 Reference value :  2.63842e-05
 Reference value :  2.65021e-05
 Reference value :  2.65084e-05
 Reference value :  2.65122e-05
 Reference value :  2.65148e-05
 Reference value :  2.65174e-05
 Reference value :  2.65226e-05
 Reference value :  2.65459e-05
 Reference value :  2.65605e-05
 Reference value :  2.65664e-05
 Reference value :  2.65709e-05
 Reference value :  2.65821e-05
 Reference value :  2.65949e-05
 Reference value :  2.66135e-05
 Reference value :  2.66731e-05
 Reference value :  2.67501e-05
 Reference value :  2.67501e-05
 Reference value :  2.67502e-05
 Reference value :  2.67504e-05
 Reference value :  2.67513e-05
 Reference value :  2.67527e-05
 Reference value :  2.67536e-05
 Reference value :  2.67546e-05
 Reference value :  2.67559e-05
 Reference value :  2.67583e-05
 Reference value :  2.67671e-05
 Reference value :  2.67922e-05
 Reference value :  2.68926e-05
 Reference value :  2.70000e-05
 Reference value :  2.70001e-05
 Reference value :  2.70001e-05
 Reference value :  2.70002e-05
 Reference value :  2.70009e-05
 Reference value :  2.70017e-05
 Reference value :  2.70027e-05
 Reference value :  2.70032e-05
 Reference value :  2.70044e-05
 Reference value :  2.70052e-05
 Reference value :  2.70067e-05
 Reference value :  2.70083e-05
 Reference value :  2.70103e-05
 Reference value :  2.70138e-05
 Reference value :  2.70256e-05
 Reference value :  2.70727e-05
 Reference value :  2.72501e-05
 Reference value :  2.72501e-05
 Reference value :  2.72502e-05
 Reference value :  2.72503e-05
 Reference value :  2.72506e-05
 Reference value :  2.72513e-05
 Reference value :  2.72521e-05
 Reference value :  2.72535e-05
 Reference value :  2.72540e-05
 Reference value :  2.72553e-05
 Reference value :  2.72560e-05
 Reference value :  2.72568e-05
 Reference value :  2.72587e-05
 Reference value :  2.72616e-05
 Reference value :  2.72667e-05
 Reference value :  2.72945e-05
 Reference value :  2.73532e-05
 Reference value :  2.75000e-05
 Reference value :  2.75000e-05
 Reference value :  2.75001e-05
 Reference value :  2.75002e-05
 Reference value :  2.75003e-05
 Reference value :  2.75009e-05
 Reference value :  2.75018e-05
 Reference value :  2.75028e-05
 Reference value :  2.75033e-05
 Reference value :  2.75046e-05
 Reference value :  2.75058e-05
 Reference value :  2.75073e-05
 Reference value :  2.75105e-05
 Reference value :  2.75115e-05
 Reference value :  2.75127e-05
 Reference value :  2.75135e-05
 Reference value :  2.75153e-05
 Reference value :  2.75173e-05
 Reference value :  2.75184e-05
 Reference value :  2.75215e-05
 Reference value :  2.75353e-05
 Reference value :  2.75726e-05
 Reference value :  2.76603e-05
 Reference value :  2.76979e-05
 Reference value :  2.77252e-05
 Reference value :  2.77470e-05
 Reference value :  2.77501e-05
 Reference value :  2.77502e-05
 Reference value :  2.77502e-05
 Reference value :  2.77504e-05
 Reference value :  2.77508e-05
 Reference value :  2.77517e-05
 Reference value :  2.77527e-05
 Reference value :  2.77540e-05
 Reference value :  2.77552e-05
 Reference value :  2.77560e-05
 Reference value :  2.77583e-05
 Reference value :  2.77631e-05
 Reference value :  2.77822e-05
 Reference value :  2.78373e-05
 Reference value :  2.78762e-05
 Reference value :  2.79314e-05
 Reference value :  2.80000e-05
 Reference value :  2.80004e-05
 Reference value :  2.80012e-05
 Reference value :  2.80016e-05
 Reference value :  2.80031e-05
 Reference value :  2.80052e-05
 Reference value :  2.80067e-05
 Reference value :  2.80082e-05
 Reference value :  2.80102e-05
 Reference value :  2.80171e-05
 Reference value :  2.80554e-05
 Reference value :  2.82501e-05
 Reference value :  2.82502e-05
 Reference value :  2.82502e-05
 Reference value :  2.82504e-05
 Reference value :  2.82513e-05
 Reference value :  2.82522e-05
 Reference value :  2.82535e-05
 Reference value :  2.82540e-05
 Reference value :  2.82553e-05
 Reference value :  2.82560e-05
 Reference value :  2.82568e-05
 Reference value :  2.82587e-05
 Reference value :  2.82617e-05
 Reference value :  2.82723e-05
 Reference value :  2.83176e-05
 Reference value :  2.85000e-05
 Reference value :  2.85000e-05
 Reference value :  2.85001e-05
 Reference value :  2.85001e-05
 Reference value :  2.85003e-05
 Reference value :  2.85009e-05
 Reference value :  2.85018e-05
 Reference value :  2.85028e-05
 Reference value :  2.85033e-05
 Reference value :  2.85046e-05
 Reference value :  2.85058e-05
 Reference value :  2.85073e-05
 Reference value :  2.85094e-05
 Reference value :  2.85115e-05
 Reference value :  2.85127e-05
 Reference value :  2.85135e-05
 Reference value :  2.85153e-05
 Reference value :  2.85163e-05
 Reference value :  2.85173e-05
 Reference value :  2.85184e-05
 Reference value :  2.85214e-05
 Reference value :  2.85348e-05
 Reference value :  2.85417e-05
 Reference value :  2.85485e-05
 Reference value :  2.85519e-05
 Reference value :  2.85585e-05
 Reference value :  2.85678e-05
 Reference value :  2.85741e-05
 Reference value :  2.85937e-05
 Reference value :  2.86711e-05
 Reference value :  2.87501e-05
 Reference value :  2.87502e-05
 Reference value :  2.87502e-05
 Reference value :  2.87503e-05
 Reference value :  2.87504e-05
 Reference value :  2.87508e-05
 Reference value :  2.87517e-05
 Reference value :  2.87527e-05
 Reference value :  2.87540e-05
 Reference value :  2.87560e-05
 Reference value :  2.87601e-05
 Reference value :  2.87764e-05
 Reference value :  2.88268e-05
 Reference value :  2.90020e-05
 Reference value :  2.90059e-05
 Reference value :  2.90079e-05
 Reference value :  2.90122e-05
 Reference value :  2.90195e-05
 Reference value :  2.90353e-05
 Reference value :  2.90911e-05
 Reference value :  2.92501e-05
 Reference value :  2.92502e-05
 Reference value :  2.92502e-05
 Reference value :  2.92504e-05
 Reference value :  2.92513e-05
 Reference value :  2.92521e-05
 Reference value :  2.92527e-05
 Reference value :  2.92536e-05
 Reference value :  2.92547e-05
 Reference value :  2.92560e-05
 Reference value :  2.92583e-05
 Reference value :  2.92673e-05
 Reference value :  2.93279e-05
 Reference value :  2.95000e-05
 Reference value :  2.95001e-05
 Reference value :  2.95003e-05
 Reference value :  2.95013e-05
 Reference value :  2.95028e-05
 Reference value :  2.95039e-05
 Reference value :  2.95059e-05
 Reference value :  2.95085e-05
 Reference value :  2.95101e-05
 Reference value :  2.95129e-05
 Reference value :  2.95139e-05
 Reference value :  2.95161e-05
 Reference value :  2.95182e-05
 Reference value :  2.95213e-05
 Reference value :  2.95319e-05
 Reference value :  2.95553e-05
 Reference value :  2.95673e-05
 Reference value :  2.95793e-05
 Reference value :  2.95923e-05
 Reference value :  2.96415e-05
 Reference value :  2.97501e-05
 Reference value :  2.97502e-05
 Reference value :  2.97502e-05
 Reference value :  2.97503e-05
 Reference value :  2.97505e-05
 Reference value :  2.97510e-05
 Reference value :  2.97519e-05
 Reference value :  2.97531e-05
 Reference value :  2.97538e-05
 Reference value :  2.97544e-05
 Reference value :  2.97551e-05
 Reference value :  2.97566e-05
 Reference value :  2.97618e-05
 Reference value :  2.98011e-05
 Reference value :  2.98197e-05
 Reference value :  2.98420e-05
 Reference value :  2.99376e-05
 Reference value :  3.00000e-05
 Reference value :  3.00001e-05
 Reference value :  3.00001e-05
 Reference value :  3.00002e-05
 Reference value :  3.00009e-05
 Reference value :  3.00020e-05
 Reference value :  3.00030e-05
 Reference value :  3.00041e-05
 Reference value :  3.00057e-05
 Reference value :  3.00064e-05
 Reference value :  3.00083e-05
 Reference value :  3.00113e-05
 Reference value :  3.00266e-05
 Reference value :  3.02377e-05
 Reference value :  3.02501e-05
 Reference value :  3.02502e-05
 Reference value :  3.02503e-05
 Reference value :  3.02507e-05
 Reference value :  3.02519e-05
 Reference value :  3.02538e-05
 Reference value :  3.02550e-05
 Reference value :  3.02564e-05
 Reference value :  3.02646e-05
 Reference value :  3.03057e-05
 Reference value :  3.04418e-05
 Reference value :  3.05011e-05
 Reference value :  3.05043e-05
 Reference value :  3.05063e-05
 Reference value :  3.05080e-05
 Reference value :  3.05106e-05
 Reference value :  3.05120e-05
 Reference value :  3.05145e-05
 Reference value :  3.05166e-05
 Reference value :  3.05187e-05
 Reference value :  3.05234e-05
 Reference value :  3.05353e-05
 Reference value :  3.05406e-05
 Reference value :  3.05447e-05
 Reference value :  3.05535e-05
 Reference value :  3.05634e-05
 Reference value :  3.05965e-05
 Reference value :  3.07501e-05
 Reference value :  3.07502e-05
 Reference value :  3.07502e-05
 Reference value :  3.07504e-05
 Reference value :  3.07509e-05
 Reference value :  3.07515e-05
 Reference value :  3.07529e-05
 Reference value :  3.07542e-05
 Reference value :  3.07561e-05
 Reference value :  3.07604e-05
 Reference value :  3.07775e-05
 Reference value :  3.08217e-05
 Reference value :  3.08732e-05
 Reference value :  3.10000e-05
 Reference value :  3.10001e-05
 Reference value :  3.10002e-05
 Reference value :  3.10009e-05
 Reference value :  3.10020e-05
 Reference value :  3.10024e-05
 Reference value :  3.10035e-05
 Reference value :  3.10047e-05
 Reference value :  3.10056e-05
 Reference value :  3.10065e-05
 Reference value :  3.10074e-05
 Reference value :  3.10084e-05
 Reference value :  3.10093e-05
 Reference value :  3.10114e-05
 Reference value :  3.10151e-05
 Reference value :  3.10376e-05
 Reference value :  3.11858e-05
 Reference value :  3.12501e-05
 Reference value :  3.12502e-05
 Reference value :  3.12503e-05
 Reference value :  3.12507e-05
 Reference value :  3.12515e-05
 Reference value :  3.12524e-05
 Reference value :  3.12538e-05
 Reference value :  3.12544e-05
 Reference value :  3.12557e-05
 Reference value :  3.12564e-05
 Reference value :  3.12581e-05
 Reference value :  3.12619e-05
 Reference value :  3.12729e-05
 Reference value :  3.13163e-05
 Reference value :  3.15000e-05
 Reference value :  3.15001e-05
 Reference value :  3.15001e-05
 Reference value :  3.15003e-05
 Reference value :  3.15015e-05
 Reference value :  3.15024e-05
 Reference value :  3.15035e-05
 Reference value :  3.15046e-05
 Reference value :  3.15065e-05
 Reference value :  3.15082e-05
 Reference value :  3.15107e-05
 Reference value :  3.15129e-05
 Reference value :  3.15146e-05
 Reference value :  3.15155e-05
 Reference value :  3.15175e-05
 Reference value :  3.15199e-05
 Reference value :  3.15293e-05
 Reference value :  3.15419e-05
 Reference value :  3.15613e-05
 Reference value :  3.16344e-05
 Reference value :  3.16630e-05
 Reference value :  3.17501e-05
 Reference value :  3.17502e-05
 Reference value :  3.17502e-05
 Reference value :  3.17504e-05
 Reference value :  3.17507e-05
 Reference value :  3.17514e-05
 Reference value :  3.17524e-05
 Reference value :  3.17538e-05
 Reference value :  3.17543e-05
 Reference value :  3.17555e-05
 Reference value :  3.17572e-05
 Reference value :  3.17642e-05
 Reference value :  3.18017e-05
 Reference value :  3.20000e-05
 Reference value :  3.20001e-05
 Reference value :  3.20001e-05
 Reference value :  3.20003e-05
 Reference value :  3.20009e-05
 Reference value :  3.20020e-05
 Reference value :  3.20029e-05
 Reference value :  3.20041e-05
 Reference value :  3.20047e-05
 Reference value :  3.20065e-05
 Reference value :  3.20084e-05
 Reference value :  3.20103e-05
 Reference value :  3.20126e-05
 Reference value :  3.20254e-05
 Reference value :  3.21009e-05
 Reference value :  3.22501e-05
 Reference value :  3.22502e-05
 Reference value :  3.22502e-05
 Reference value :  3.22504e-05
 Reference value :  3.22507e-05
 Reference value :  3.22515e-05
 Reference value :  3.22524e-05
 Reference value :  3.22538e-05
 Reference value :  3.22544e-05
 Reference value :  3.22557e-05
 Reference value :  3.22564e-05
 Reference value :  3.22590e-05
 Reference value :  3.22641e-05
 Reference value :  3.22948e-05
 Reference value :  3.25000e-05
 Reference value :  3.25001e-05
 Reference value :  3.25001e-05
 Reference value :  3.25003e-05
 Reference value :  3.25015e-05
 Reference value :  3.25024e-05
 Reference value :  3.25035e-05
 Reference value :  3.25046e-05
 Reference value :  3.25065e-05
 Reference value :  3.25097e-05
 Reference value :  3.25118e-05
 Reference value :  3.25138e-05
 Reference value :  3.25155e-05
 Reference value :  3.25187e-05
 Reference value :  3.25244e-05
 Reference value :  3.25429e-05
 Reference value :  3.25555e-05
 Reference value :  3.25666e-05
 Reference value :  3.25740e-05
 Reference value :  3.25918e-05
 Reference value :  3.26404e-05
 Reference value :  3.27501e-05
 Reference value :  3.27502e-05
 Reference value :  3.27503e-05
 Reference value :  3.27507e-05
 Reference value :  3.27519e-05
 Reference value :  3.27538e-05
 Reference value :  3.27550e-05
 Reference value :  3.27563e-05
 Reference value :  3.27610e-05
 Reference value :  3.28021e-05
 Reference value :  3.30000e-05
 Reference value :  3.30001e-05
 Reference value :  3.30002e-05
 Reference value :  3.30009e-05
 Reference value :  3.30024e-05
 Reference value :  3.30035e-05
 Reference value :  3.30049e-05
 Reference value :  3.30064e-05
 Reference value :  3.30083e-05
 Reference value :  3.30112e-05
 Reference value :  3.30190e-05
 Reference value :  3.30429e-05
 Reference value :  3.32501e-05
 Reference value :  3.32502e-05
 Reference value :  3.32504e-05
 Reference value :  3.32510e-05
 Reference value :  3.32519e-05
 Reference value :  3.32531e-05
 Reference value :  3.32544e-05
 Reference value :  3.32564e-05
 Reference value :  3.32612e-05
 Reference value :  3.33054e-05
 Reference value :  3.35000e-05
 Reference value :  3.35010e-05
 Reference value :  3.35041e-05
 Reference value :  3.35051e-05
 Reference value :  3.35060e-05
 Reference value :  3.35078e-05
 Reference value :  3.35096e-05
 Reference value :  3.35118e-05
 Reference value :  3.35393e-05
 Reference value :  3.37501e-05
 Reference value :  3.37502e-05
 Reference value :  3.37503e-05
 Reference value :  3.37504e-05
 Reference value :  3.37508e-05
 Reference value :  3.37518e-05
 Reference value :  3.37538e-05
 Reference value :  3.37564e-05
 Reference value :  3.37613e-05
 Reference value :  3.37895e-05
 Reference value :  3.40000e-05
No. of Data Rows : 4799
ngspice-44 done
