
Note: Compatibility modes selected: hs a


Circuit: ** sch_path: /home/audrey/cace/sar-adc-using-sky130-pdk/runs/run_2025-09-09_11-58-32/parameters/power/run_1/power_consumption.sch

option SCALE: Scale is set to 1e-06 for instance and model parameters
option SCALE: Scale is set to 1e-06 for instance and model parameters
option SCALE: Scale is set to 1e-06 for instance and model parameters
option SCALE: Scale is set to 1e-06 for instance and model parameters
Doing analysis at TEMP = 27.000000 and TNOM = 27.000000

Using KLU as Direct Linear Solver
 Reference value :  0.00000e+00
 Reference value :  1.00000e-12
 Reference value :  4.00000e-12
 Reference value :  8.00000e-12
 Reference value :  3.20000e-11
 Reference value :  6.40000e-11
 Reference value :  1.00000e-10
 Reference value :  1.06400e-10
 Reference value :  1.19200e-10
 Reference value :  1.44800e-10
 Reference value :  1.96000e-10
 Reference value :  4.69057e-10
 Reference value :  9.85428e-10
 Reference value :  1.39986e-09
 Reference value :  1.83849e-09
 Reference value :  2.29421e-09
 Reference value :  2.70346e-09
 Reference value :  3.14668e-09
 Reference value :  3.63929e-09
 Reference value :  4.16461e-09
 Reference value :  4.71201e-09
 Reference value :  5.38782e-09
 Reference value :  6.97509e-09
 Reference value :  7.79161e-09
 Reference value :  8.63967e-09
 Reference value :  9.57513e-09
 Reference value :  1.06027e-08
 Reference value :  1.15127e-08
 Reference value :  1.22352e-08
 Reference value :  1.29954e-08
 Reference value :  1.49080e-08
 Reference value :  1.61629e-08
 Reference value :  1.80138e-08
 Reference value :  2.04541e-08
 Reference value :  2.44818e-08
 Reference value :  3.04254e-08
 Reference value :  5.56100e-08
 Reference value :  1.22467e-07
 Reference value :  2.50100e-07
 Reference value :  2.50110e-07
 Reference value :  2.50130e-07
 Reference value :  2.50170e-07
 Reference value :  2.50200e-07
 Reference value :  2.50207e-07
 Reference value :  2.50220e-07
 Reference value :  2.50247e-07
 Reference value :  2.50300e-07
 Reference value :  2.50522e-07
 Reference value :  2.50975e-07
 Reference value :  2.51422e-07
 Reference value :  2.51839e-07
 Reference value :  2.52277e-07
 Reference value :  2.52920e-07
 Reference value :  2.53547e-07
 Reference value :  2.54101e-07
 Reference value :  2.54687e-07
 Reference value :  2.55277e-07
 Reference value :  2.56060e-07
 Reference value :  2.56887e-07
 Reference value :  2.59675e-07
 Reference value :  2.65304e-07
 Reference value :  2.81550e-07
 Reference value :  3.28911e-07
 Reference value :  4.68597e-07
 Reference value :  5.00010e-07
 Reference value :  5.00030e-07
 Reference value :  5.00070e-07
 Reference value :  5.00108e-07
 Reference value :  5.00124e-07
 Reference value :  5.00156e-07
 Reference value :  5.00220e-07
 Reference value :  5.00537e-07
 Reference value :  5.00857e-07
 Reference value :  5.01189e-07
 Reference value :  5.01567e-07
 Reference value :  5.02478e-07
 Reference value :  5.02983e-07
 Reference value :  5.03560e-07
 Reference value :  5.04109e-07
 Reference value :  5.04896e-07
 Reference value :  5.07062e-07
 Reference value :  5.08634e-07
 Reference value :  5.09869e-07
 Reference value :  5.11247e-07
 Reference value :  5.12624e-07
 Reference value :  5.14299e-07
 Reference value :  5.16174e-07
 Reference value :  5.21921e-07
 Reference value :  5.33910e-07
 Reference value :  5.69016e-07
 Reference value :  6.11433e-07
 Reference value :  7.50100e-07
 Reference value :  7.50130e-07
 Reference value :  7.50200e-07
 Reference value :  7.50224e-07
 Reference value :  7.50320e-07
 Reference value :  7.50703e-07
 Reference value :  7.51109e-07
 Reference value :  7.51576e-07
 Reference value :  7.52040e-07
 Reference value :  7.52526e-07
 Reference value :  7.53260e-07
 Reference value :  7.53777e-07
 Reference value :  7.54359e-07
 Reference value :  7.54920e-07
 Reference value :  7.55509e-07
 Reference value :  7.56262e-07
 Reference value :  7.57071e-07
 Reference value :  7.58957e-07
 Reference value :  7.60505e-07
 Reference value :  7.62153e-07
 Reference value :  7.64953e-07
 Reference value :  7.74791e-07
 Reference value :  7.87907e-07
 Reference value :  8.62315e-07
 Reference value :  9.61525e-07
 Reference value :  1.00000e-06
 Reference value :  1.00001e-06
 Reference value :  1.00003e-06
 Reference value :  1.00007e-06
 Reference value :  1.00010e-06
 Reference value :  1.00012e-06
 Reference value :  1.00022e-06
 Reference value :  1.00035e-06
 Reference value :  1.00086e-06
 Reference value :  1.00119e-06
 Reference value :  1.00162e-06
 Reference value :  1.00208e-06
 Reference value :  1.00257e-06
 Reference value :  1.00307e-06
 Reference value :  1.00362e-06
 Reference value :  1.00418e-06
 Reference value :  1.00469e-06
 Reference value :  1.00517e-06
 Reference value :  1.00571e-06
 Reference value :  1.00706e-06
 Reference value :  1.00804e-06
 Reference value :  1.00919e-06
 Reference value :  1.01007e-06
 Reference value :  1.01102e-06
 Reference value :  1.01193e-06
 Reference value :  1.01295e-06
 Reference value :  1.01367e-06
 Reference value :  1.01436e-06
 Reference value :  1.01521e-06
 Reference value :  1.01612e-06
 Reference value :  1.01702e-06
 Reference value :  1.01796e-06
 Reference value :  1.01896e-06
 Reference value :  1.02060e-06
 Reference value :  1.02513e-06
 Reference value :  1.03067e-06
 Reference value :  1.03820e-06
 Reference value :  1.05215e-06
 Reference value :  1.07703e-06
 Reference value :  1.12511e-06
 Reference value :  1.18870e-06
 Reference value :  1.25011e-06
 Reference value :  1.25017e-06
 Reference value :  1.25020e-06
 Reference value :  1.25021e-06
 Reference value :  1.25026e-06
 Reference value :  1.25032e-06
 Reference value :  1.25070e-06
 Reference value :  1.25110e-06
 Reference value :  1.25157e-06
 Reference value :  1.25203e-06
 Reference value :  1.25252e-06
 Reference value :  1.25325e-06
 Reference value :  1.25376e-06
 Reference value :  1.25433e-06
 Reference value :  1.25572e-06
 Reference value :  1.25648e-06
 Reference value :  1.25801e-06
 Reference value :  1.25969e-06
 Reference value :  1.26591e-06
 Reference value :  1.28617e-06
 Reference value :  1.36721e-06
 Reference value :  1.47527e-06
 Reference value :  1.50001e-06
 Reference value :  1.50003e-06
 Reference value :  1.50007e-06
 Reference value :  1.50011e-06
 Reference value :  1.50012e-06
 Reference value :  1.50016e-06
 Reference value :  1.50022e-06
 Reference value :  1.50054e-06
 Reference value :  1.50086e-06
 Reference value :  1.50119e-06
 Reference value :  1.50158e-06
 Reference value :  1.50202e-06
 Reference value :  1.50250e-06
 Reference value :  1.50299e-06
 Reference value :  1.50355e-06
 Reference value :  1.50410e-06
 Reference value :  1.50486e-06
 Reference value :  1.50558e-06
 Reference value :  1.50622e-06
 Reference value :  1.50692e-06
 Reference value :  1.50790e-06
 Reference value :  1.50881e-06
 Reference value :  1.50983e-06
 Reference value :  1.51102e-06
 Reference value :  1.51221e-06
 Reference value :  1.51869e-06
 Reference value :  1.52608e-06
 Reference value :  1.54086e-06
 Reference value :  1.62903e-06
 Reference value :  1.74625e-06
 Reference value :  1.75010e-06
 Reference value :  1.75011e-06
 Reference value :  1.75013e-06
 Reference value :  1.75017e-06
 Reference value :  1.75021e-06
 Reference value :  1.75026e-06
 Reference value :  1.75045e-06
 Reference value :  1.75110e-06
 Reference value :  1.75157e-06
 Reference value :  1.75203e-06
 Reference value :  1.75252e-06
 Reference value :  1.75325e-06
 Reference value :  1.75377e-06
 Reference value :  1.75436e-06
 Reference value :  1.75491e-06
 Reference value :  1.75549e-06
 Reference value :  1.75624e-06
 Reference value :  1.75787e-06
 Reference value :  1.75890e-06
 Reference value :  1.76052e-06
 Reference value :  1.76213e-06
 Reference value :  1.76495e-06
 Reference value :  1.77448e-06
 Reference value :  1.78579e-06
 Reference value :  1.80570e-06
 Reference value :  1.84554e-06
 Reference value :  1.92520e-06
 Reference value :  2.00000e-06
 Reference value :  2.00001e-06
 Reference value :  2.00007e-06
 Reference value :  2.00010e-06
 Reference value :  2.00011e-06
 Reference value :  2.00012e-06
 Reference value :  2.00016e-06
 Reference value :  2.00022e-06
 Reference value :  2.00035e-06
 Reference value :  2.00054e-06
 Reference value :  2.00086e-06
 Reference value :  2.00119e-06
 Reference value :  2.00162e-06
 Reference value :  2.00208e-06
 Reference value :  2.00257e-06
 Reference value :  2.00307e-06
 Reference value :  2.00363e-06
 Reference value :  2.00418e-06
 Reference value :  2.00469e-06
 Reference value :  2.00517e-06
 Reference value :  2.00571e-06
 Reference value :  2.00706e-06
 Reference value :  2.00804e-06
 Reference value :  2.00919e-06
 Reference value :  2.01007e-06
 Reference value :  2.01102e-06
 Reference value :  2.01192e-06
 Reference value :  2.01294e-06
 Reference value :  2.01366e-06
 Reference value :  2.01434e-06
 Reference value :  2.01520e-06
 Reference value :  2.01610e-06
 Reference value :  2.01794e-06
 Reference value :  2.01893e-06
 Reference value :  2.02055e-06
 Reference value :  2.02503e-06
 Reference value :  2.03047e-06
 Reference value :  2.05160e-06
 Reference value :  2.07496e-06
 Reference value :  2.17168e-06
 Reference value :  2.24443e-06
 Reference value :  2.25011e-06
 Reference value :  2.25013e-06
 Reference value :  2.25020e-06
 Reference value :  2.25022e-06
 Reference value :  2.25032e-06
 Reference value :  2.25045e-06
 Reference value :  2.25110e-06
 Reference value :  2.25157e-06
 Reference value :  2.25203e-06
 Reference value :  2.25251e-06
 Reference value :  2.25325e-06
 Reference value :  2.25375e-06
 Reference value :  2.25433e-06
 Reference value :  2.25504e-06
 Reference value :  2.25572e-06
 Reference value :  2.25805e-06
 Reference value :  2.25971e-06
 Reference value :  2.26597e-06
 Reference value :  2.28628e-06
 Reference value :  2.36750e-06
 Reference value :  2.45868e-06
 Reference value :  2.50001e-06
 Reference value :  2.50003e-06
 Reference value :  2.50007e-06
 Reference value :  2.50010e-06
 Reference value :  2.50012e-06
 Reference value :  2.50022e-06
 Reference value :  2.50054e-06
 Reference value :  2.50086e-06
 Reference value :  2.50119e-06
 Reference value :  2.50158e-06
 Reference value :  2.50202e-06
 Reference value :  2.50250e-06
 Reference value :  2.50299e-06
 Reference value :  2.50355e-06
 Reference value :  2.50410e-06
 Reference value :  2.50486e-06
 Reference value :  2.50558e-06
 Reference value :  2.50622e-06
 Reference value :  2.50692e-06
 Reference value :  2.50790e-06
 Reference value :  2.50881e-06
 Reference value :  2.50983e-06
 Reference value :  2.51102e-06
 Reference value :  2.51458e-06
 Reference value :  2.51869e-06
 Reference value :  2.52612e-06
 Reference value :  2.54098e-06
 Reference value :  2.62923e-06
 Reference value :  2.75010e-06
 Reference value :  2.75011e-06
 Reference value :  2.75013e-06
 Reference value :  2.75017e-06
 Reference value :  2.75021e-06
 Reference value :  2.75022e-06
 Reference value :  2.75032e-06
 Reference value :  2.75045e-06
 Reference value :  2.75070e-06
 Reference value :  2.75110e-06
 Reference value :  2.75157e-06
 Reference value :  2.75203e-06
 Reference value :  2.75252e-06
 Reference value :  2.75325e-06
 Reference value :  2.75377e-06
 Reference value :  2.75490e-06
 Reference value :  2.75623e-06
 Reference value :  2.75704e-06
 Reference value :  2.75786e-06
 Reference value :  2.75889e-06
 Reference value :  2.76046e-06
 Reference value :  2.76209e-06
 Reference value :  2.76802e-06
 Reference value :  2.78516e-06
 Reference value :  2.84126e-06
 Reference value :  2.91605e-06
 Reference value :  3.00000e-06
 Reference value :  3.00001e-06
 Reference value :  3.00003e-06
 Reference value :  3.00007e-06
 Reference value :  3.00010e-06
 Reference value :  3.00011e-06
 Reference value :  3.00012e-06
 Reference value :  3.00016e-06
 Reference value :  3.00022e-06
 Reference value :  3.00035e-06
 Reference value :  3.00054e-06
 Reference value :  3.00086e-06
 Reference value :  3.00119e-06
 Reference value :  3.00162e-06
 Reference value :  3.00208e-06
 Reference value :  3.00257e-06
 Reference value :  3.00307e-06
 Reference value :  3.00363e-06
 Reference value :  3.00418e-06
 Reference value :  3.00469e-06
 Reference value :  3.00517e-06
 Reference value :  3.00572e-06
 Reference value :  3.00636e-06
 Reference value :  3.00707e-06
 Reference value :  3.00804e-06
 Reference value :  3.00919e-06
 Reference value :  3.01007e-06
 Reference value :  3.01102e-06
 Reference value :  3.01192e-06
 Reference value :  3.01293e-06
 Reference value :  3.01365e-06
 Reference value :  3.01433e-06
 Reference value :  3.01518e-06
 Reference value :  3.01608e-06
 Reference value :  3.01697e-06
 Reference value :  3.01793e-06
 Reference value :  3.01892e-06
 Reference value :  3.02052e-06
 Reference value :  3.02228e-06
 Reference value :  3.02497e-06
 Reference value :  3.03036e-06
 Reference value :  3.03779e-06
 Reference value :  3.05137e-06
 Reference value :  3.07388e-06
 Reference value :  3.09706e-06
 Reference value :  3.12460e-06
 Reference value :  3.15183e-06
 Reference value :  3.18080e-06
 Reference value :  3.20861e-06
 Reference value :  3.24420e-06
 Reference value :  3.25010e-06
 Reference value :  3.25011e-06
 Reference value :  3.25013e-06
 Reference value :  3.25017e-06
 Reference value :  3.25020e-06
 Reference value :  3.25021e-06
 Reference value :  3.25022e-06
 Reference value :  3.25026e-06
 Reference value :  3.25032e-06
 Reference value :  3.25045e-06
 Reference value :  3.25070e-06
 Reference value :  3.25109e-06
 Reference value :  3.25157e-06
 Reference value :  3.25203e-06
 Reference value :  3.25251e-06
 Reference value :  3.25324e-06
 Reference value :  3.25375e-06
 Reference value :  3.25433e-06
 Reference value :  3.25504e-06
 Reference value :  3.25571e-06
 Reference value :  3.25650e-06
 Reference value :  3.25808e-06
 Reference value :  3.25973e-06
 Reference value :  3.26263e-06
 Reference value :  3.26602e-06
 Reference value :  3.27280e-06
 Reference value :  3.28635e-06
 Reference value :  3.31346e-06
 Reference value :  3.36768e-06
 Reference value :  3.43395e-06
 Reference value :  3.50000e-06
 Reference value :  3.50003e-06
 Reference value :  3.50007e-06
 Reference value :  3.50010e-06
 Reference value :  3.50011e-06
 Reference value :  3.50012e-06
 Reference value :  3.50016e-06
 Reference value :  3.50022e-06
 Reference value :  3.50035e-06
 Reference value :  3.50054e-06
 Reference value :  3.50086e-06
 Reference value :  3.50119e-06
 Reference value :  3.50158e-06
 Reference value :  3.50202e-06
 Reference value :  3.50299e-06
 Reference value :  3.50355e-06
 Reference value :  3.50410e-06
 Reference value :  3.50486e-06
 Reference value :  3.50558e-06
 Reference value :  3.50622e-06
 Reference value :  3.50692e-06
 Reference value :  3.50791e-06
 Reference value :  3.50881e-06
 Reference value :  3.50984e-06
 Reference value :  3.51101e-06
 Reference value :  3.51459e-06
 Reference value :  3.52614e-06
 Reference value :  3.57067e-06
 Reference value :  3.62919e-06
 Reference value :  3.75010e-06
 Reference value :  3.75013e-06
 Reference value :  3.75017e-06
 Reference value :  3.75021e-06
 Reference value :  3.75022e-06
 Reference value :  3.75032e-06
 Reference value :  3.75045e-06
 Reference value :  3.75109e-06
 Reference value :  3.75157e-06
 Reference value :  3.75203e-06
 Reference value :  3.75251e-06
 Reference value :  3.75324e-06
 Reference value :  3.75377e-06
 Reference value :  3.75435e-06
 Reference value :  3.75490e-06
 Reference value :  3.75548e-06
 Reference value :  3.75622e-06
 Reference value :  3.75785e-06
 Reference value :  3.75889e-06
 Reference value :  3.76207e-06
 Reference value :  3.76797e-06
 Reference value :  3.78485e-06
 Reference value :  3.80293e-06
 Reference value :  3.83909e-06
 Reference value :  3.91141e-06
 Reference value :  4.00000e-06
 Reference value :  4.00003e-06
 Reference value :  4.00010e-06
 Reference value :  4.00012e-06
 Reference value :  4.00022e-06
 Reference value :  4.00054e-06
 Reference value :  4.00086e-06
 Reference value :  4.00119e-06
 Reference value :  4.00162e-06
 Reference value :  4.00208e-06
 Reference value :  4.00257e-06
 Reference value :  4.00307e-06
 Reference value :  4.00363e-06
 Reference value :  4.00418e-06
 Reference value :  4.00469e-06
 Reference value :  4.00518e-06
 Reference value :  4.00572e-06
 Reference value :  4.00636e-06
 Reference value :  4.00804e-06
 Reference value :  4.00919e-06
 Reference value :  4.01007e-06
 Reference value :  4.01102e-06
 Reference value :  4.01192e-06
 Reference value :  4.01293e-06
 Reference value :  4.01365e-06
 Reference value :  4.01433e-06
 Reference value :  4.01518e-06
 Reference value :  4.01608e-06
 Reference value :  4.01696e-06
 Reference value :  4.01802e-06
 Reference value :  4.01898e-06
 Reference value :  4.02071e-06
 Reference value :  4.02526e-06
 Reference value :  4.03085e-06
 Reference value :  4.04711e-06
 Reference value :  4.06508e-06
 Reference value :  4.07099e-06
 Reference value :  4.07639e-06
 Reference value :  4.08159e-06
 Reference value :  4.09555e-06
 Reference value :  4.12253e-06
 Reference value :  4.14284e-06
 Reference value :  4.16471e-06
 Reference value :  4.18704e-06
 Reference value :  4.21479e-06
 Reference value :  4.25011e-06
 Reference value :  4.25017e-06
 Reference value :  4.25020e-06
 Reference value :  4.25021e-06
 Reference value :  4.25022e-06
 Reference value :  4.25026e-06
 Reference value :  4.25032e-06
 Reference value :  4.25045e-06
 Reference value :  4.25109e-06
 Reference value :  4.25156e-06
 Reference value :  4.25203e-06
 Reference value :  4.25251e-06
 Reference value :  4.25324e-06
 Reference value :  4.25377e-06
 Reference value :  4.25438e-06
 Reference value :  4.25501e-06
 Reference value :  4.25566e-06
 Reference value :  4.25645e-06
 Reference value :  4.25802e-06
 Reference value :  4.25965e-06
 Reference value :  4.26252e-06
 Reference value :  4.26581e-06
 Reference value :  4.27239e-06
 Reference value :  4.28557e-06
 Reference value :  4.31191e-06
 Reference value :  4.46997e-06
 Reference value :  4.50000e-06
 Reference value :  4.50001e-06
 Reference value :  4.50003e-06
 Reference value :  4.50007e-06
 Reference value :  4.50010e-06
 Reference value :  4.50011e-06
 Reference value :  4.50012e-06
 Reference value :  4.50016e-06
 Reference value :  4.50022e-06
 Reference value :  4.50035e-06
 Reference value :  4.50054e-06
 Reference value :  4.50086e-06
 Reference value :  4.50119e-06
 Reference value :  4.50163e-06
 Reference value :  4.50210e-06
 Reference value :  4.50258e-06
 Reference value :  4.50307e-06
 Reference value :  4.50363e-06
 Reference value :  4.50418e-06
 Reference value :  4.50488e-06
 Reference value :  4.50568e-06
 Reference value :  4.50630e-06
 Reference value :  4.50793e-06
 Reference value :  4.50889e-06
 Reference value :  4.50982e-06
 Reference value :  4.51093e-06
 Reference value :  4.51441e-06
 Reference value :  4.52655e-06
 Reference value :  4.54168e-06
 Reference value :  4.57195e-06
 Reference value :  4.63249e-06
 Reference value :  4.75011e-06
 Reference value :  4.75017e-06
 Reference value :  4.75021e-06
 Reference value :  4.75026e-06
 Reference value :  4.75045e-06
 Reference value :  4.75070e-06
 Reference value :  4.75109e-06
 Reference value :  4.75156e-06
 Reference value :  4.75203e-06
 Reference value :  4.75251e-06
 Reference value :  4.75324e-06
 Reference value :  4.75377e-06
 Reference value :  4.75436e-06
 Reference value :  4.75490e-06
 Reference value :  4.75549e-06
 Reference value :  4.75635e-06
 Reference value :  4.75725e-06
 Reference value :  4.75900e-06
 Reference value :  4.76449e-06
 Reference value :  4.78112e-06
 Reference value :  4.84763e-06
 Reference value :  5.00000e-06
 Reference value :  5.00001e-06
 Reference value :  5.00003e-06
 Reference value :  5.00007e-06
 Reference value :  5.00010e-06
 Reference value :  5.00011e-06
 Reference value :  5.00012e-06
 Reference value :  5.00016e-06
 Reference value :  5.00035e-06
 Reference value :  5.00054e-06
 Reference value :  5.00086e-06
 Reference value :  5.00119e-06
 Reference value :  5.00163e-06
 Reference value :  5.00210e-06
 Reference value :  5.00258e-06
 Reference value :  5.00307e-06
 Reference value :  5.00364e-06
 Reference value :  5.00418e-06
 Reference value :  5.00524e-06
 Reference value :  5.00580e-06
 Reference value :  5.00649e-06
 Reference value :  5.00732e-06
 Reference value :  5.00866e-06
 Reference value :  5.01030e-06
 Reference value :  5.01188e-06
 Reference value :  5.01341e-06
 Reference value :  5.01453e-06
 Reference value :  5.01555e-06
 Reference value :  5.01645e-06
 Reference value :  5.01752e-06
 Reference value :  5.01862e-06
 Reference value :  5.01979e-06
 Reference value :  5.02416e-06
 Reference value :  5.03821e-06
 Reference value :  5.06160e-06
 Reference value :  5.08012e-06
 Reference value :  5.09934e-06
 Reference value :  5.13778e-06
 Reference value :  5.20326e-06
 Reference value :  5.25011e-06
 Reference value :  5.25013e-06
 Reference value :  5.25020e-06
 Reference value :  5.25021e-06
 Reference value :  5.25026e-06
 Reference value :  5.25032e-06
 Reference value :  5.25045e-06
 Reference value :  5.25070e-06
 Reference value :  5.25109e-06
 Reference value :  5.25156e-06
 Reference value :  5.25202e-06
 Reference value :  5.25251e-06
 Reference value :  5.25323e-06
 Reference value :  5.25378e-06
 Reference value :  5.25438e-06
 Reference value :  5.25502e-06
 Reference value :  5.25567e-06
 Reference value :  5.25646e-06
 Reference value :  5.25967e-06
 Reference value :  5.26256e-06
 Reference value :  5.27249e-06
 Reference value :  5.28572e-06
 Reference value :  5.31219e-06
 Reference value :  5.47100e-06
 Reference value :  5.50001e-06
 Reference value :  5.50003e-06
 Reference value :  5.50007e-06
 Reference value :  5.50010e-06
 Reference value :  5.50012e-06
 Reference value :  5.50016e-06
 Reference value :  5.50035e-06
 Reference value :  5.50054e-06
 Reference value :  5.50086e-06
 Reference value :  5.50119e-06
 Reference value :  5.50163e-06
 Reference value :  5.50210e-06
 Reference value :  5.50258e-06
 Reference value :  5.50307e-06
 Reference value :  5.50363e-06
 Reference value :  5.50418e-06
 Reference value :  5.50489e-06
 Reference value :  5.50569e-06
 Reference value :  5.50630e-06
 Reference value :  5.50702e-06
 Reference value :  5.50794e-06
 Reference value :  5.50890e-06
 Reference value :  5.50983e-06
 Reference value :  5.51094e-06
 Reference value :  5.51441e-06
 Reference value :  5.52653e-06
 Reference value :  5.57183e-06
 Reference value :  5.63222e-06
 Reference value :  5.75011e-06
 Reference value :  5.75017e-06
 Reference value :  5.75020e-06
 Reference value :  5.75021e-06
 Reference value :  5.75026e-06
 Reference value :  5.75032e-06
 Reference value :  5.75070e-06
 Reference value :  5.75109e-06
 Reference value :  5.75156e-06
 Reference value :  5.75203e-06
 Reference value :  5.75251e-06
 Reference value :  5.75324e-06
 Reference value :  5.75377e-06
 Reference value :  5.75436e-06
 Reference value :  5.75490e-06
 Reference value :  5.75548e-06
 Reference value :  5.75634e-06
 Reference value :  5.75898e-06
 Reference value :  5.76124e-06
 Reference value :  5.76994e-06
 Reference value :  5.80287e-06
 Reference value :  5.84676e-06
 Reference value :  6.00000e-06
 Reference value :  6.00001e-06
 Reference value :  6.00003e-06
 Reference value :  6.00010e-06
 Reference value :  6.00012e-06
 Reference value :  6.00016e-06
 Reference value :  6.00035e-06
 Reference value :  6.00054e-06
 Reference value :  6.00086e-06
 Reference value :  6.00163e-06
 Reference value :  6.00210e-06
 Reference value :  6.00258e-06
 Reference value :  6.00307e-06
 Reference value :  6.00364e-06
 Reference value :  6.00418e-06
 Reference value :  6.00473e-06
 Reference value :  6.00524e-06
 Reference value :  6.00580e-06
 Reference value :  6.00732e-06
 Reference value :  6.00866e-06
 Reference value :  6.01029e-06
 Reference value :  6.01187e-06
 Reference value :  6.01341e-06
 Reference value :  6.01454e-06
 Reference value :  6.01556e-06
 Reference value :  6.01646e-06
 Reference value :  6.01753e-06
 Reference value :  6.01864e-06
 Reference value :  6.02181e-06
 Reference value :  6.02422e-06
 Reference value :  6.02905e-06
 Reference value :  6.04515e-06
 Reference value :  6.07419e-06
 Reference value :  6.17850e-06
 Reference value :  6.25011e-06
 Reference value :  6.25013e-06
 Reference value :  6.25020e-06
 Reference value :  6.25022e-06
 Reference value :  6.25032e-06
 Reference value :  6.25070e-06
 Reference value :  6.25156e-06
 Reference value :  6.25202e-06
 Reference value :  6.25251e-06
 Reference value :  6.25323e-06
 Reference value :  6.25378e-06
 Reference value :  6.25438e-06
 Reference value :  6.25502e-06
 Reference value :  6.25567e-06
 Reference value :  6.25805e-06
 Reference value :  6.25967e-06
 Reference value :  6.26256e-06
 Reference value :  6.27250e-06
 Reference value :  6.28574e-06
 Reference value :  6.31223e-06
 Reference value :  6.36520e-06
 Reference value :  6.47115e-06
 Reference value :  6.50000e-06
 Reference value :  6.50001e-06
 Reference value :  6.50003e-06
 Reference value :  6.50007e-06
 Reference value :  6.50010e-06
 Reference value :  6.50011e-06
 Reference value :  6.50012e-06
 Reference value :  6.50016e-06
 Reference value :  6.50035e-06
 Reference value :  6.50054e-06
 Reference value :  6.50086e-06
 Reference value :  6.50119e-06
 Reference value :  6.50163e-06
 Reference value :  6.50210e-06
 Reference value :  6.50258e-06
 Reference value :  6.50306e-06
 Reference value :  6.50363e-06
 Reference value :  6.50418e-06
 Reference value :  6.50489e-06
 Reference value :  6.50569e-06
 Reference value :  6.50630e-06
 Reference value :  6.50702e-06
 Reference value :  6.50794e-06
 Reference value :  6.50890e-06
 Reference value :  6.50983e-06
 Reference value :  6.51094e-06
 Reference value :  6.51210e-06
 Reference value :  6.51898e-06
 Reference value :  6.54160e-06
 Reference value :  6.63207e-06
 Reference value :  6.75011e-06
 Reference value :  6.75013e-06
 Reference value :  6.75020e-06
 Reference value :  6.75022e-06
 Reference value :  6.75032e-06
 Reference value :  6.75045e-06
 Reference value :  6.75109e-06
 Reference value :  6.75156e-06
 Reference value :  6.75202e-06
 Reference value :  6.75251e-06
 Reference value :  6.75324e-06
 Reference value :  6.75376e-06
 Reference value :  6.75436e-06
 Reference value :  6.75490e-06
 Reference value :  6.75548e-06
 Reference value :  6.75633e-06
 Reference value :  6.75723e-06
 Reference value :  6.76123e-06
 Reference value :  6.76991e-06
 Reference value :  6.78086e-06
 Reference value :  6.84653e-06
 Reference value :  6.93409e-06
 Reference value :  7.00000e-06
 Reference value :  7.00003e-06
 Reference value :  7.00010e-06
 Reference value :  7.00011e-06
 Reference value :  7.00012e-06
 Reference value :  7.00016e-06
 Reference value :  7.00022e-06
 Reference value :  7.00035e-06
 Reference value :  7.00054e-06
 Reference value :  7.00086e-06
 Reference value :  7.00119e-06
 Reference value :  7.00163e-06
 Reference value :  7.00210e-06
 Reference value :  7.00258e-06
 Reference value :  7.00307e-06
 Reference value :  7.00364e-06
 Reference value :  7.00418e-06
 Reference value :  7.00473e-06
 Reference value :  7.00524e-06
 Reference value :  7.00580e-06
 Reference value :  7.00649e-06
 Reference value :  7.00732e-06
 Reference value :  7.00866e-06
 Reference value :  7.01029e-06
 Reference value :  7.01187e-06
 Reference value :  7.01341e-06
 Reference value :  7.01454e-06
 Reference value :  7.01557e-06
 Reference value :  7.01647e-06
 Reference value :  7.01754e-06
 Reference value :  7.01866e-06
 Reference value :  7.02183e-06
 Reference value :  7.02915e-06
 Reference value :  7.04631e-06
 Reference value :  7.06108e-06
 Reference value :  7.07882e-06
 Reference value :  7.09020e-06
 Reference value :  7.11925e-06
 Reference value :  7.16622e-06
 Reference value :  7.19432e-06
 Reference value :  7.25010e-06
 Reference value :  7.25011e-06
 Reference value :  7.25013e-06
 Reference value :  7.25017e-06
 Reference value :  7.25020e-06
 Reference value :  7.25022e-06
 Reference value :  7.25032e-06
 Reference value :  7.25045e-06
 Reference value :  7.25070e-06
 Reference value :  7.25109e-06
 Reference value :  7.25156e-06
 Reference value :  7.25202e-06
 Reference value :  7.25251e-06
 Reference value :  7.25323e-06
 Reference value :  7.25375e-06
 Reference value :  7.25432e-06
 Reference value :  7.25502e-06
 Reference value :  7.25569e-06
 Reference value :  7.25647e-06
 Reference value :  7.25966e-06
 Reference value :  7.26252e-06
 Reference value :  7.26584e-06
 Reference value :  7.27249e-06
 Reference value :  7.31234e-06
 Reference value :  7.47177e-06
 Reference value :  7.50001e-06
 Reference value :  7.50003e-06
 Reference value :  7.50007e-06
 Reference value :  7.50010e-06
 Reference value :  7.50012e-06
 Reference value :  7.50022e-06
 Reference value :  7.50035e-06
 Reference value :  7.50054e-06
 Reference value :  7.50086e-06
 Reference value :  7.50119e-06
 Reference value :  7.50159e-06
 Reference value :  7.50204e-06
 Reference value :  7.50251e-06
 Reference value :  7.50300e-06
 Reference value :  7.50356e-06
 Reference value :  7.50490e-06
 Reference value :  7.50562e-06
 Reference value :  7.50625e-06
 Reference value :  7.50795e-06
 Reference value :  7.50986e-06
 Reference value :  7.51111e-06
 Reference value :  7.51451e-06
 Reference value :  7.52616e-06
 Reference value :  7.56880e-06
 Reference value :  7.73936e-06
 Reference value :  7.75011e-06
 Reference value :  7.75017e-06
 Reference value :  7.75020e-06
 Reference value :  7.75022e-06
 Reference value :  7.75026e-06
 Reference value :  7.75045e-06
 Reference value :  7.75070e-06
 Reference value :  7.75109e-06
 Reference value :  7.75156e-06
 Reference value :  7.75202e-06
 Reference value :  7.75251e-06
 Reference value :  7.75324e-06
 Reference value :  7.75376e-06
 Reference value :  7.75435e-06
 Reference value :  7.75490e-06
 Reference value :  7.75548e-06
 Reference value :  7.75622e-06
 Reference value :  7.75704e-06
 Reference value :  7.75785e-06
 Reference value :  7.75888e-06
 Reference value :  7.76204e-06
 Reference value :  7.76471e-06
 Reference value :  7.76788e-06
 Reference value :  7.78428e-06
 Reference value :  7.83472e-06
 Reference value :  8.00000e-06
 Reference value :  8.00003e-06
 Reference value :  8.00007e-06
 Reference value :  8.00010e-06
 Reference value :  8.00011e-06
 Reference value :  8.00012e-06
 Reference value :  8.00016e-06
 Reference value :  8.00022e-06
 Reference value :  8.00035e-06
 Reference value :  8.00054e-06
 Reference value :  8.00086e-06
 Reference value :  8.00119e-06
 Reference value :  8.00163e-06
 Reference value :  8.00209e-06
 Reference value :  8.00258e-06
 Reference value :  8.00308e-06
 Reference value :  8.00364e-06
 Reference value :  8.00415e-06
 Reference value :  8.00467e-06
 Reference value :  8.00515e-06
 Reference value :  8.00569e-06
 Reference value :  8.00631e-06
 Reference value :  8.00703e-06
 Reference value :  8.00773e-06
 Reference value :  8.00859e-06
 Reference value :  8.00930e-06
 Reference value :  8.01008e-06
 Reference value :  8.01087e-06
 Reference value :  8.01181e-06
 Reference value :  8.01368e-06
 Reference value :  8.01629e-06
 Reference value :  8.01745e-06
 Reference value :  8.01877e-06
 Reference value :  8.02141e-06
 Reference value :  8.02452e-06
 Reference value :  8.04165e-06
 Reference value :  8.06349e-06
 Reference value :  8.16727e-06
 Reference value :  8.23896e-06
 Reference value :  8.25010e-06
 Reference value :  8.25011e-06
 Reference value :  8.25013e-06
 Reference value :  8.25017e-06
 Reference value :  8.25020e-06
 Reference value :  8.25021e-06
 Reference value :  8.25026e-06
 Reference value :  8.25045e-06
 Reference value :  8.25070e-06
 Reference value :  8.25109e-06
 Reference value :  8.25156e-06
 Reference value :  8.25202e-06
 Reference value :  8.25251e-06
 Reference value :  8.25324e-06
 Reference value :  8.25392e-06
 Reference value :  8.25483e-06
 Reference value :  8.25576e-06
 Reference value :  8.25676e-06
 Reference value :  8.25838e-06
 Reference value :  8.26014e-06
 Reference value :  8.26310e-06
 Reference value :  8.26685e-06
 Reference value :  8.27435e-06
 Reference value :  8.28935e-06
 Reference value :  8.31936e-06
 Reference value :  8.37936e-06
 Reference value :  8.43342e-06
 Reference value :  8.50000e-06
No. of Data Rows : 1230
ngspice-44 done
