
Note: Compatibility modes selected: hs a


Circuit: ** sch_path: /home/issa/cace/sar-adc-using-sky130-pdk/runs/run_2025-09-20_12-15-47/parameters/sampling_rate/run_15/sampling_rate.sch

option SCALE: Scale is set to 1e-06 for instance and model parameters
option SCALE: Scale is set to 1e-06 for instance and model parameters
option SCALE: Scale is set to 1e-06 for instance and model parameters
option SCALE: Scale is set to 1e-06 for instance and model parameters
Doing analysis at TEMP = 27.000000 and TNOM = 27.000000

Using KLU as Direct Linear Solver
Operating point simulation skipped by 'uic',
  now using transient initial conditions.
 Reference value :  1.00000e-12
 Reference value :  1.02800e-12
 Reference value :  1.19600e-12
 Reference value :  2.21440e-12
 Reference value :  6.09942e-12
 Reference value :  1.90592e-11
 Reference value :  5.28242e-11
 Reference value :  1.00000e-10
 Reference value :  1.11020e-10
 Reference value :  1.48387e-10
 Reference value :  2.97858e-10
 Reference value :  1.15744e-09
 Reference value :  2.24487e-09
 Reference value :  4.80941e-09
 Reference value :  6.86455e-09
 Reference value :  8.61379e-09
 Reference value :  1.01090e-08
 Reference value :  1.16076e-08
 Reference value :  1.29971e-08
 Reference value :  1.75775e-08
 Reference value :  2.64375e-08
 Reference value :  3.92856e-08
 Reference value :  5.73935e-08
 Reference value :  1.82561e-07
 Reference value :  2.50130e-07
 Reference value :  2.50208e-07
 Reference value :  2.50313e-07
 Reference value :  2.50749e-07
 Reference value :  2.51921e-07
 Reference value :  2.53953e-07
 Reference value :  2.55242e-07
 Reference value :  2.57803e-07
 Reference value :  2.63755e-07
 Reference value :  2.85818e-07
 Reference value :  4.91750e-07
 Reference value :  5.00030e-07
 Reference value :  5.00108e-07
 Reference value :  5.00220e-07
 Reference value :  5.00864e-07
 Reference value :  5.01761e-07
 Reference value :  5.02767e-07
 Reference value :  5.04003e-07
 Reference value :  5.05395e-07
 Reference value :  5.09178e-07
 Reference value :  5.11977e-07
 Reference value :  5.13349e-07
 Reference value :  5.16416e-07
 Reference value :  5.20576e-07
 Reference value :  5.33789e-07
 Reference value :  6.08822e-07
 Reference value :  7.50110e-07
 Reference value :  7.50200e-07
 Reference value :  7.50256e-07
 Reference value :  7.50700e-07
 Reference value :  7.51531e-07
 Reference value :  7.52030e-07
 Reference value :  7.53273e-07
 Reference value :  7.54677e-07
 Reference value :  7.56089e-07
 Reference value :  7.57895e-07
 Reference value :  7.65496e-07
 Reference value :  8.00867e-07
 Reference value :  1.00000e-06
 Reference value :  1.00007e-06
 Reference value :  1.00012e-06
 Reference value :  1.00035e-06
 Reference value :  1.00130e-06
 Reference value :  1.00224e-06
 Reference value :  1.00341e-06
 Reference value :  1.00458e-06
 Reference value :  1.00582e-06
 Reference value :  1.00642e-06
 Reference value :  1.00899e-06
 Reference value :  1.01255e-06
 Reference value :  1.01401e-06
 Reference value :  1.01538e-06
 Reference value :  1.01800e-06
 Reference value :  1.01912e-06
 Reference value :  1.02351e-06
 Reference value :  1.03432e-06
 Reference value :  1.08391e-06
 Reference value :  1.25010e-06
 Reference value :  1.25013e-06
 Reference value :  1.25021e-06
 Reference value :  1.25032e-06
 Reference value :  1.25070e-06
 Reference value :  1.25153e-06
 Reference value :  1.25203e-06
 Reference value :  1.25327e-06
 Reference value :  1.25467e-06
 Reference value :  1.25601e-06
 Reference value :  1.25689e-06
 Reference value :  1.25781e-06
 Reference value :  1.26176e-06
 Reference value :  1.28173e-06
 Reference value :  1.39141e-06
 Reference value :  1.50003e-06
 Reference value :  1.50011e-06
 Reference value :  1.50016e-06
 Reference value :  1.50052e-06
 Reference value :  1.50130e-06
 Reference value :  1.50224e-06
 Reference value :  1.50400e-06
 Reference value :  1.50533e-06
 Reference value :  1.50730e-06
 Reference value :  1.50925e-06
 Reference value :  1.51122e-06
 Reference value :  1.51363e-06
 Reference value :  1.53097e-06
 Reference value :  1.75010e-06
 Reference value :  1.75017e-06
 Reference value :  1.75022e-06
 Reference value :  1.75045e-06
 Reference value :  1.75154e-06
 Reference value :  1.75257e-06
 Reference value :  1.75406e-06
 Reference value :  1.75540e-06
 Reference value :  1.75697e-06
 Reference value :  1.76193e-06
 Reference value :  1.79989e-06
 Reference value :  1.98498e-06
 Reference value :  2.00001e-06
 Reference value :  2.00010e-06
 Reference value :  2.00016e-06
 Reference value :  2.00052e-06
 Reference value :  2.00130e-06
 Reference value :  2.00224e-06
 Reference value :  2.00341e-06
 Reference value :  2.00458e-06
 Reference value :  2.00582e-06
 Reference value :  2.00643e-06
 Reference value :  2.00800e-06
 Reference value :  2.01256e-06
 Reference value :  2.01401e-06
 Reference value :  2.01537e-06
 Reference value :  2.01797e-06
 Reference value :  2.01909e-06
 Reference value :  2.02162e-06
 Reference value :  2.02536e-06
 Reference value :  2.04267e-06
 Reference value :  2.06117e-06
 Reference value :  2.06789e-06
 Reference value :  2.07429e-06
 Reference value :  2.08848e-06
 Reference value :  2.10388e-06
 Reference value :  2.13521e-06
 Reference value :  2.25010e-06
 Reference value :  2.25013e-06
 Reference value :  2.25020e-06
 Reference value :  2.25026e-06
 Reference value :  2.25070e-06
 Reference value :  2.25152e-06
 Reference value :  2.25255e-06
 Reference value :  2.25401e-06
 Reference value :  2.25534e-06
 Reference value :  2.25600e-06
 Reference value :  2.25694e-06
 Reference value :  2.25791e-06
 Reference value :  2.25964e-06
 Reference value :  2.26533e-06
 Reference value :  2.28211e-06
 Reference value :  2.33311e-06
 Reference value :  2.50000e-06
 Reference value :  2.50001e-06
 Reference value :  2.50003e-06
 Reference value :  2.50007e-06
 Reference value :  2.50010e-06
 Reference value :  2.50012e-06
 Reference value :  2.50022e-06
 Reference value :  2.50052e-06
 Reference value :  2.50130e-06
 Reference value :  2.50177e-06
 Reference value :  2.50221e-06
 Reference value :  2.50332e-06
 Reference value :  2.50405e-06
 Reference value :  2.50485e-06
 Reference value :  2.50674e-06
 Reference value :  2.50753e-06
 Reference value :  2.50946e-06
 Reference value :  2.51157e-06
 Reference value :  2.51411e-06
 Reference value :  2.52859e-06
 Reference value :  2.61963e-06
 Reference value :  2.75011e-06
 Reference value :  2.75020e-06
 Reference value :  2.75026e-06
 Reference value :  2.75045e-06
 Reference value :  2.75106e-06
 Reference value :  2.75202e-06
 Reference value :  2.75326e-06
 Reference value :  2.75465e-06
 Reference value :  2.75533e-06
 Reference value :  2.75697e-06
 Reference value :  2.75885e-06
 Reference value :  2.76127e-06
 Reference value :  2.76551e-06
 Reference value :  2.78393e-06
 Reference value :  2.85811e-06
 Reference value :  3.00000e-06
 Reference value :  3.00003e-06
 Reference value :  3.00010e-06
 Reference value :  3.00016e-06
 Reference value :  3.00035e-06
 Reference value :  3.00086e-06
 Reference value :  3.00130e-06
 Reference value :  3.00224e-06
 Reference value :  3.00341e-06
 Reference value :  3.00457e-06
 Reference value :  3.00521e-06
 Reference value :  3.00583e-06
 Reference value :  3.00712e-06
 Reference value :  3.00901e-06
 Reference value :  3.01145e-06
 Reference value :  3.01377e-06
 Reference value :  3.01613e-06
 Reference value :  3.01837e-06
 Reference value :  3.02087e-06
 Reference value :  3.02669e-06
 Reference value :  3.04865e-06
 Reference value :  3.05723e-06
 Reference value :  3.06353e-06
 Reference value :  3.07411e-06
 Reference value :  3.08851e-06
 Reference value :  3.10588e-06
 Reference value :  3.13193e-06
 Reference value :  3.17848e-06
 Reference value :  3.25010e-06
 Reference value :  3.25017e-06
 Reference value :  3.25021e-06
 Reference value :  3.25032e-06
 Reference value :  3.25105e-06
 Reference value :  3.25202e-06
 Reference value :  3.25326e-06
 Reference value :  3.25465e-06
 Reference value :  3.25599e-06
 Reference value :  3.25777e-06
 Reference value :  3.26504e-06
 Reference value :  3.29880e-06
 Reference value :  3.50000e-06
 Reference value :  3.50007e-06
 Reference value :  3.50011e-06
 Reference value :  3.50022e-06
 Reference value :  3.50086e-06
 Reference value :  3.50176e-06
 Reference value :  3.50277e-06
 Reference value :  3.50463e-06
 Reference value :  3.50628e-06
 Reference value :  3.50826e-06
 Reference value :  3.51019e-06
 Reference value :  3.51236e-06
 Reference value :  3.52121e-06
 Reference value :  3.58917e-06
 Reference value :  3.75010e-06
 Reference value :  3.75011e-06
 Reference value :  3.75020e-06
 Reference value :  3.75026e-06
 Reference value :  3.75070e-06
 Reference value :  3.75153e-06
 Reference value :  3.75203e-06
 Reference value :  3.75328e-06
 Reference value :  3.75469e-06
 Reference value :  3.75609e-06
 Reference value :  3.75787e-06
 Reference value :  3.76541e-06
 Reference value :  3.83119e-06
 Reference value :  3.98112e-06
 Reference value :  4.00003e-06
 Reference value :  4.00010e-06
 Reference value :  4.00012e-06
 Reference value :  4.00035e-06
 Reference value :  4.00130e-06
 Reference value :  4.00224e-06
 Reference value :  4.00277e-06
 Reference value :  4.00403e-06
 Reference value :  4.00458e-06
 Reference value :  4.00582e-06
 Reference value :  4.00711e-06
 Reference value :  4.01062e-06
 Reference value :  4.01402e-06
 Reference value :  4.01670e-06
 Reference value :  4.01797e-06
 Reference value :  4.01908e-06
 Reference value :  4.02162e-06
 Reference value :  4.02343e-06
 Reference value :  4.03413e-06
 Reference value :  4.03948e-06
 Reference value :  4.04422e-06
 Reference value :  4.05239e-06
 Reference value :  4.06439e-06
 Reference value :  4.10003e-06
 Reference value :  4.17904e-06
 Reference value :  4.25011e-06
 Reference value :  4.25017e-06
 Reference value :  4.25022e-06
 Reference value :  4.25045e-06
 Reference value :  4.25153e-06
 Reference value :  4.25203e-06
 Reference value :  4.25402e-06
 Reference value :  4.25538e-06
 Reference value :  4.25813e-06
 Reference value :  4.26604e-06
 Reference value :  4.33507e-06
 Reference value :  4.50000e-06
 Reference value :  4.50007e-06
 Reference value :  4.50012e-06
 Reference value :  4.50035e-06
 Reference value :  4.50086e-06
 Reference value :  4.50130e-06
 Reference value :  4.50177e-06
 Reference value :  4.50221e-06
 Reference value :  4.50332e-06
 Reference value :  4.50485e-06
 Reference value :  4.50674e-06
 Reference value :  4.50753e-06
 Reference value :  4.50946e-06
 Reference value :  4.51157e-06
 Reference value :  4.51277e-06
 Reference value :  4.52080e-06
 Reference value :  4.56727e-06
 Reference value :  4.75010e-06
 Reference value :  4.75017e-06
 Reference value :  4.75022e-06
 Reference value :  4.75045e-06
 Reference value :  4.75105e-06
 Reference value :  4.75202e-06
 Reference value :  4.75325e-06
 Reference value :  4.75403e-06
 Reference value :  4.75464e-06
 Reference value :  4.75604e-06
 Reference value :  4.75786e-06
 Reference value :  4.75995e-06
 Reference value :  4.76548e-06
 Reference value :  4.78388e-06
 Reference value :  4.91730e-06
 Reference value :  5.00003e-06
 Reference value :  5.00010e-06
 Reference value :  5.00016e-06
 Reference value :  5.00035e-06
 Reference value :  5.00130e-06
 Reference value :  5.00224e-06
 Reference value :  5.00340e-06
 Reference value :  5.00457e-06
 Reference value :  5.00583e-06
 Reference value :  5.00712e-06
 Reference value :  5.00901e-06
 Reference value :  5.01146e-06
 Reference value :  5.01256e-06
 Reference value :  5.01378e-06
 Reference value :  5.01509e-06
 Reference value :  5.01733e-06
 Reference value :  5.01972e-06
 Reference value :  5.02111e-06
 Reference value :  5.02257e-06
 Reference value :  5.02740e-06
 Reference value :  5.03076e-06
 Reference value :  5.03386e-06
 Reference value :  5.03836e-06
 Reference value :  5.04057e-06
 Reference value :  5.05010e-06
 Reference value :  5.07417e-06
 Reference value :  5.15065e-06
 Reference value :  5.25011e-06
 Reference value :  5.25020e-06
 Reference value :  5.25026e-06
 Reference value :  5.25070e-06
 Reference value :  5.25202e-06
 Reference value :  5.25405e-06
 Reference value :  5.25532e-06
 Reference value :  5.25686e-06
 Reference value :  5.26168e-06
 Reference value :  5.28124e-06
 Reference value :  5.38746e-06
 Reference value :  5.50003e-06
 Reference value :  5.50010e-06
 Reference value :  5.50016e-06
 Reference value :  5.50035e-06
 Reference value :  5.50086e-06
 Reference value :  5.50130e-06
 Reference value :  5.50224e-06
 Reference value :  5.50340e-06
 Reference value :  5.50463e-06
 Reference value :  5.50628e-06
 Reference value :  5.50730e-06
 Reference value :  5.50826e-06
 Reference value :  5.51019e-06
 Reference value :  5.51237e-06
 Reference value :  5.52121e-06
 Reference value :  5.58911e-06
 Reference value :  5.75011e-06
 Reference value :  5.75020e-06
 Reference value :  5.75026e-06
 Reference value :  5.75070e-06
 Reference value :  5.75203e-06
 Reference value :  5.75328e-06
 Reference value :  5.75468e-06
 Reference value :  5.75609e-06
 Reference value :  5.75968e-06
 Reference value :  5.77155e-06
 Reference value :  5.83143e-06
 Reference value :  5.97979e-06
 Reference value :  6.00001e-06
 Reference value :  6.00003e-06
 Reference value :  6.00007e-06
 Reference value :  6.00011e-06
 Reference value :  6.00016e-06
 Reference value :  6.00035e-06
 Reference value :  6.00086e-06
 Reference value :  6.00130e-06
 Reference value :  6.00224e-06
 Reference value :  6.00340e-06
 Reference value :  6.00458e-06
 Reference value :  6.00582e-06
 Reference value :  6.00643e-06
 Reference value :  6.00801e-06
 Reference value :  6.01062e-06
 Reference value :  6.01402e-06
 Reference value :  6.01536e-06
 Reference value :  6.01796e-06
 Reference value :  6.01907e-06
 Reference value :  6.02161e-06
 Reference value :  6.02533e-06
 Reference value :  6.03854e-06
 Reference value :  6.04234e-06
 Reference value :  6.05041e-06
 Reference value :  6.06017e-06
 Reference value :  6.07911e-06
 Reference value :  6.14496e-06
 Reference value :  6.24953e-06
 Reference value :  6.25013e-06
 Reference value :  6.25021e-06
 Reference value :  6.25032e-06
 Reference value :  6.25070e-06
 Reference value :  6.25105e-06
 Reference value :  6.25203e-06
 Reference value :  6.25328e-06
 Reference value :  6.25468e-06
 Reference value :  6.25605e-06
 Reference value :  6.25811e-06
 Reference value :  6.26597e-06
 Reference value :  6.30235e-06
 Reference value :  6.48334e-06
 Reference value :  6.50003e-06
 Reference value :  6.50011e-06
 Reference value :  6.50022e-06
 Reference value :  6.50052e-06
 Reference value :  6.50086e-06
 Reference value :  6.50177e-06
 Reference value :  6.50221e-06
 Reference value :  6.50332e-06
 Reference value :  6.50485e-06
 Reference value :  6.50674e-06
 Reference value :  6.50753e-06
 Reference value :  6.50946e-06
 Reference value :  6.51157e-06
 Reference value :  6.51411e-06
 Reference value :  6.52833e-06
 Reference value :  6.71359e-06
 Reference value :  6.75013e-06
 Reference value :  6.75020e-06
 Reference value :  6.75026e-06
 Reference value :  6.75070e-06
 Reference value :  6.75152e-06
 Reference value :  6.75254e-06
 Reference value :  6.75403e-06
 Reference value :  6.75532e-06
 Reference value :  6.75604e-06
 Reference value :  6.75785e-06
 Reference value :  6.75995e-06
 Reference value :  6.76316e-06
 Reference value :  6.78386e-06
 Reference value :  6.82160e-06
 Reference value :  6.91745e-06
 Reference value :  7.00001e-06
 Reference value :  7.00007e-06
 Reference value :  7.00011e-06
 Reference value :  7.00022e-06
 Reference value :  7.00035e-06
 Reference value :  7.00086e-06
 Reference value :  7.00130e-06
 Reference value :  7.00224e-06
 Reference value :  7.00340e-06
 Reference value :  7.00457e-06
 Reference value :  7.00583e-06
 Reference value :  7.00644e-06
 Reference value :  7.00802e-06
 Reference value :  7.01046e-06
 Reference value :  7.01148e-06
 Reference value :  7.01380e-06
 Reference value :  7.01638e-06
 Reference value :  7.01867e-06
 Reference value :  7.02123e-06
 Reference value :  7.02779e-06
 Reference value :  7.04133e-06
 Reference value :  7.09518e-06
 Reference value :  7.16368e-06
 Reference value :  7.25010e-06
 Reference value :  7.25017e-06
 Reference value :  7.25022e-06
 Reference value :  7.25045e-06
 Reference value :  7.25105e-06
 Reference value :  7.25202e-06
 Reference value :  7.25326e-06
 Reference value :  7.25463e-06
 Reference value :  7.25682e-06
 Reference value :  7.26161e-06
 Reference value :  7.29809e-06
 Reference value :  7.44933e-06
 Reference value :  7.50003e-06
 Reference value :  7.50011e-06
 Reference value :  7.50022e-06
 Reference value :  7.50086e-06
 Reference value :  7.50177e-06
 Reference value :  7.50270e-06
 Reference value :  7.50405e-06
 Reference value :  7.50561e-06
 Reference value :  7.50754e-06
 Reference value :  7.50947e-06
 Reference value :  7.51158e-06
 Reference value :  7.51277e-06
 Reference value :  7.52076e-06
 Reference value :  7.54199e-06
 Reference value :  7.61487e-06
 Reference value :  7.75010e-06
 Reference value :  7.75017e-06
 Reference value :  7.75022e-06
 Reference value :  7.75045e-06
 Reference value :  7.75105e-06
 Reference value :  7.75201e-06
 Reference value :  7.75325e-06
 Reference value :  7.75403e-06
 Reference value :  7.75464e-06
 Reference value :  7.75604e-06
 Reference value :  7.75784e-06
 Reference value :  7.75994e-06
 Reference value :  7.76542e-06
 Reference value :  7.78369e-06
 Reference value :  7.91607e-06
 Reference value :  8.00003e-06
 Reference value :  8.00011e-06
 Reference value :  8.00016e-06
 Reference value :  8.00035e-06
 Reference value :  8.00086e-06
 Reference value :  8.00130e-06
 Reference value :  8.00176e-06
 Reference value :  8.00224e-06
 Reference value :  8.00340e-06
 Reference value :  8.00457e-06
 Reference value :  8.00521e-06
 Reference value :  8.00583e-06
 Reference value :  8.00712e-06
 Reference value :  8.00901e-06
 Reference value :  8.01082e-06
 Reference value :  8.01282e-06
 Reference value :  8.01623e-06
 Reference value :  8.02056e-06
 Reference value :  8.02261e-06
 Reference value :  8.02696e-06
 Reference value :  8.03219e-06
 Reference value :  8.05370e-06
 Reference value :  8.10315e-06
 Reference value :  8.25010e-06
 Reference value :  8.25013e-06
 Reference value :  8.25021e-06
 Reference value :  8.25032e-06
 Reference value :  8.25070e-06
 Reference value :  8.25152e-06
 Reference value :  8.25202e-06
 Reference value :  8.25326e-06
 Reference value :  8.25513e-06
 Reference value :  8.25854e-06
 Reference value :  8.26621e-06
 Reference value :  8.29390e-06
 Reference value :  8.35513e-06
 Reference value :  8.50003e-06
 Reference value :  8.50011e-06
 Reference value :  8.50022e-06
 Reference value :  8.50098e-06
 Reference value :  8.50151e-06
 Reference value :  8.50256e-06
 Reference value :  8.50374e-06
 Reference value :  8.50513e-06
 Reference value :  8.50569e-06
 Reference value :  8.50704e-06
 Reference value :  8.51120e-06
 Reference value :  8.52725e-06
 Reference value :  8.53292e-06
 Reference value :  8.53682e-06
 Reference value :  8.54406e-06
 Reference value :  8.54946e-06
 Reference value :  8.55940e-06
 Reference value :  8.58001e-06
 Reference value :  8.63544e-06
 Reference value :  8.71656e-06
 Reference value :  8.75011e-06
 Reference value :  8.75017e-06
 Reference value :  8.75021e-06
 Reference value :  8.75032e-06
 Reference value :  8.75070e-06
 Reference value :  8.75152e-06
 Reference value :  8.75201e-06
 Reference value :  8.75326e-06
 Reference value :  8.75464e-06
 Reference value :  8.75597e-06
 Reference value :  8.75771e-06
 Reference value :  8.76488e-06
 Reference value :  8.79777e-06
 Reference value :  8.88583e-06
No. of Data Rows : 1349
ngspice-44 done
