
Note: Compatibility modes selected: hs a


Circuit: ** sch_path: /home/audrey/cace/sar-adc-using-sky130-pdk/runs/run_2025-09-07_18-36-20/parameters/power/run_1/power_consumption.sch

option SCALE: Scale is set to 1e-06 for instance and model parameters
option SCALE: Scale is set to 1e-06 for instance and model parameters
option SCALE: Scale is set to 1e-06 for instance and model parameters
option SCALE: Scale is set to 1e-06 for instance and model parameters
Doing analysis at TEMP = 27.000000 and TNOM = 27.000000

Using KLU as Direct Linear Solver
 Reference value :  0.00000e+00
 Reference value :  1.00000e-12
 Reference value :  2.00000e-12
 Reference value :  4.00000e-12
 Reference value :  8.00000e-12
 Reference value :  1.60000e-11
 Reference value :  3.20000e-11
 Reference value :  6.40000e-11
 Reference value :  1.00000e-10
 Reference value :  1.06400e-10
 Reference value :  1.44800e-10
 Reference value :  1.96000e-10
 Reference value :  2.98400e-10
 Reference value :  4.48181e-10
 Reference value :  7.26320e-10
 Reference value :  9.88390e-10
 Reference value :  1.41221e-09
 Reference value :  1.79563e-09
 Reference value :  2.21519e-09
 Reference value :  2.65894e-09
 Reference value :  3.18017e-09
 Reference value :  3.67977e-09
 Reference value :  4.17910e-09
 Reference value :  4.73051e-09
 Reference value :  5.36071e-09
 Reference value :  6.11095e-09
 Reference value :  6.86086e-09
 Reference value :  7.72388e-09
 Reference value :  8.63154e-09
 Reference value :  9.64905e-09
 Reference value :  1.08261e-08
 Reference value :  1.19311e-08
 Reference value :  1.29931e-08
 Reference value :  1.39866e-08
 Reference value :  1.50225e-08
 Reference value :  1.77089e-08
 Reference value :  2.03571e-08
 Reference value :  2.31496e-08
 Reference value :  3.58684e-08
 Reference value :  6.61721e-08
 Reference value :  1.42390e-07
 Reference value :  2.20999e-07
 Reference value :  2.50110e-07
 Reference value :  2.50130e-07
 Reference value :  2.50200e-07
 Reference value :  2.50207e-07
 Reference value :  2.50220e-07
 Reference value :  2.50246e-07
 Reference value :  2.50299e-07
 Reference value :  2.50393e-07
 Reference value :  2.50520e-07
 Reference value :  2.50694e-07
 Reference value :  2.50933e-07
 Reference value :  2.51323e-07
 Reference value :  2.51733e-07
 Reference value :  2.52774e-07
 Reference value :  2.53476e-07
 Reference value :  2.53990e-07
 Reference value :  2.54567e-07
 Reference value :  2.55179e-07
 Reference value :  2.56008e-07
 Reference value :  2.56775e-07
 Reference value :  2.58106e-07
 Reference value :  2.59530e-07
 Reference value :  2.62072e-07
 Reference value :  2.65146e-07
 Reference value :  2.71293e-07
 Reference value :  2.81871e-07
 Reference value :  3.32399e-07
 Reference value :  4.87963e-07
 Reference value :  5.00010e-07
 Reference value :  5.00030e-07
 Reference value :  5.00070e-07
 Reference value :  5.00100e-07
 Reference value :  5.00124e-07
 Reference value :  5.00156e-07
 Reference value :  5.00220e-07
 Reference value :  5.00345e-07
 Reference value :  5.00518e-07
 Reference value :  5.00864e-07
 Reference value :  5.01309e-07
 Reference value :  5.01729e-07
 Reference value :  5.02194e-07
 Reference value :  5.02641e-07
 Reference value :  5.03187e-07
 Reference value :  5.03767e-07
 Reference value :  5.04396e-07
 Reference value :  5.05257e-07
 Reference value :  5.06058e-07
 Reference value :  5.07264e-07
 Reference value :  5.08698e-07
 Reference value :  5.09847e-07
 Reference value :  5.11094e-07
 Reference value :  5.12522e-07
 Reference value :  5.14122e-07
 Reference value :  5.15642e-07
 Reference value :  5.17592e-07
 Reference value :  5.19682e-07
 Reference value :  5.23232e-07
 Reference value :  5.28880e-07
 Reference value :  5.37178e-07
 Reference value :  5.53775e-07
 Reference value :  5.86968e-07
 Reference value :  6.53355e-07
 Reference value :  7.50110e-07
 Reference value :  7.50130e-07
 Reference value :  7.50170e-07
 Reference value :  7.50200e-07
 Reference value :  7.50208e-07
 Reference value :  7.50224e-07
 Reference value :  7.50320e-07
 Reference value :  7.50448e-07
 Reference value :  7.50698e-07
 Reference value :  7.51020e-07
 Reference value :  7.51567e-07
 Reference value :  7.52060e-07
 Reference value :  7.53359e-07
 Reference value :  7.53868e-07
 Reference value :  7.54450e-07
 Reference value :  7.55025e-07
 Reference value :  7.55631e-07
 Reference value :  7.56457e-07
 Reference value :  7.58282e-07
 Reference value :  7.59225e-07
 Reference value :  7.60578e-07
 Reference value :  7.62100e-07
 Reference value :  7.64873e-07
 Reference value :  7.68594e-07
 Reference value :  7.90917e-07
 Reference value :  8.20680e-07
 Reference value :  8.80207e-07
 Reference value :  1.00000e-06
 Reference value :  1.00001e-06
 Reference value :  1.00003e-06
 Reference value :  1.00010e-06
 Reference value :  1.00011e-06
 Reference value :  1.00012e-06
 Reference value :  1.00016e-06
 Reference value :  1.00022e-06
 Reference value :  1.00034e-06
 Reference value :  1.00052e-06
 Reference value :  1.00086e-06
 Reference value :  1.00131e-06
 Reference value :  1.00182e-06
 Reference value :  1.00231e-06
 Reference value :  1.00278e-06
 Reference value :  1.00334e-06
 Reference value :  1.00393e-06
 Reference value :  1.00457e-06
 Reference value :  1.00519e-06
 Reference value :  1.00576e-06
 Reference value :  1.00641e-06
 Reference value :  1.00726e-06
 Reference value :  1.00818e-06
 Reference value :  1.00935e-06
 Reference value :  1.01043e-06
 Reference value :  1.01148e-06
 Reference value :  1.01263e-06
 Reference value :  1.01351e-06
 Reference value :  1.01535e-06
 Reference value :  1.01636e-06
 Reference value :  1.01735e-06
 Reference value :  1.01850e-06
 Reference value :  1.02155e-06
 Reference value :  1.02768e-06
 Reference value :  1.04761e-06
 Reference value :  1.12104e-06
 Reference value :  1.18481e-06
 Reference value :  1.25011e-06
 Reference value :  1.25013e-06
 Reference value :  1.25020e-06
 Reference value :  1.25021e-06
 Reference value :  1.25026e-06
 Reference value :  1.25032e-06
 Reference value :  1.25045e-06
 Reference value :  1.25102e-06
 Reference value :  1.25206e-06
 Reference value :  1.25258e-06
 Reference value :  1.25335e-06
 Reference value :  1.25385e-06
 Reference value :  1.25513e-06
 Reference value :  1.25588e-06
 Reference value :  1.25825e-06
 Reference value :  1.25993e-06
 Reference value :  1.26700e-06
 Reference value :  1.29159e-06
 Reference value :  1.38995e-06
 Reference value :  1.50001e-06
 Reference value :  1.50003e-06
 Reference value :  1.50010e-06
 Reference value :  1.50012e-06
 Reference value :  1.50016e-06
 Reference value :  1.50034e-06
 Reference value :  1.50052e-06
 Reference value :  1.50086e-06
 Reference value :  1.50131e-06
 Reference value :  1.50174e-06
 Reference value :  1.50222e-06
 Reference value :  1.50267e-06
 Reference value :  1.50320e-06
 Reference value :  1.50377e-06
 Reference value :  1.50440e-06
 Reference value :  1.50519e-06
 Reference value :  1.50602e-06
 Reference value :  1.50671e-06
 Reference value :  1.50744e-06
 Reference value :  1.50836e-06
 Reference value :  1.50933e-06
 Reference value :  1.51027e-06
 Reference value :  1.51138e-06
 Reference value :  1.51512e-06
 Reference value :  1.51871e-06
 Reference value :  1.52548e-06
 Reference value :  1.53755e-06
 Reference value :  1.55861e-06
 Reference value :  1.60074e-06
 Reference value :  1.68499e-06
 Reference value :  1.75010e-06
 Reference value :  1.75011e-06
 Reference value :  1.75013e-06
 Reference value :  1.75017e-06
 Reference value :  1.75020e-06
 Reference value :  1.75021e-06
 Reference value :  1.75022e-06
 Reference value :  1.75026e-06
 Reference value :  1.75032e-06
 Reference value :  1.75045e-06
 Reference value :  1.75070e-06
 Reference value :  1.75101e-06
 Reference value :  1.75156e-06
 Reference value :  1.75205e-06
 Reference value :  1.75258e-06
 Reference value :  1.75335e-06
 Reference value :  1.75386e-06
 Reference value :  1.75444e-06
 Reference value :  1.75501e-06
 Reference value :  1.75560e-06
 Reference value :  1.75645e-06
 Reference value :  1.75737e-06
 Reference value :  1.75829e-06
 Reference value :  1.75926e-06
 Reference value :  1.76065e-06
 Reference value :  1.76498e-06
 Reference value :  1.76873e-06
 Reference value :  1.77622e-06
 Reference value :  1.79121e-06
 Reference value :  1.82117e-06
 Reference value :  2.00000e-06
 Reference value :  2.00001e-06
 Reference value :  2.00003e-06
 Reference value :  2.00007e-06
 Reference value :  2.00011e-06
 Reference value :  2.00012e-06
 Reference value :  2.00022e-06
 Reference value :  2.00034e-06
 Reference value :  2.00086e-06
 Reference value :  2.00131e-06
 Reference value :  2.00182e-06
 Reference value :  2.00230e-06
 Reference value :  2.00278e-06
 Reference value :  2.00334e-06
 Reference value :  2.00392e-06
 Reference value :  2.00457e-06
 Reference value :  2.00519e-06
 Reference value :  2.00576e-06
 Reference value :  2.00642e-06
 Reference value :  2.00726e-06
 Reference value :  2.00818e-06
 Reference value :  2.00935e-06
 Reference value :  2.01043e-06
 Reference value :  2.01147e-06
 Reference value :  2.01263e-06
 Reference value :  2.01351e-06
 Reference value :  2.01437e-06
 Reference value :  2.01535e-06
 Reference value :  2.01636e-06
 Reference value :  2.01735e-06
 Reference value :  2.01850e-06
 Reference value :  2.01969e-06
 Reference value :  2.02155e-06
 Reference value :  2.02358e-06
 Reference value :  2.03524e-06
 Reference value :  2.04730e-06
 Reference value :  2.07140e-06
 Reference value :  2.10269e-06
 Reference value :  2.15588e-06
 Reference value :  2.25010e-06
 Reference value :  2.25013e-06
 Reference value :  2.25017e-06
 Reference value :  2.25020e-06
 Reference value :  2.25021e-06
 Reference value :  2.25022e-06
 Reference value :  2.25026e-06
 Reference value :  2.25032e-06
 Reference value :  2.25045e-06
 Reference value :  2.25070e-06
 Reference value :  2.25101e-06
 Reference value :  2.25151e-06
 Reference value :  2.25203e-06
 Reference value :  2.25252e-06
 Reference value :  2.25326e-06
 Reference value :  2.25377e-06
 Reference value :  2.25435e-06
 Reference value :  2.25495e-06
 Reference value :  2.25558e-06
 Reference value :  2.25781e-06
 Reference value :  2.25927e-06
 Reference value :  2.26203e-06
 Reference value :  2.27189e-06
 Reference value :  2.28503e-06
 Reference value :  2.36386e-06
 Reference value :  2.50000e-06
 Reference value :  2.50001e-06
 Reference value :  2.50003e-06
 Reference value :  2.50007e-06
 Reference value :  2.50010e-06
 Reference value :  2.50011e-06
 Reference value :  2.50012e-06
 Reference value :  2.50016e-06
 Reference value :  2.50022e-06
 Reference value :  2.50034e-06
 Reference value :  2.50052e-06
 Reference value :  2.50086e-06
 Reference value :  2.50174e-06
 Reference value :  2.50267e-06
 Reference value :  2.50320e-06
 Reference value :  2.50377e-06
 Reference value :  2.50440e-06
 Reference value :  2.50520e-06
 Reference value :  2.50602e-06
 Reference value :  2.50671e-06
 Reference value :  2.50744e-06
 Reference value :  2.50837e-06
 Reference value :  2.50934e-06
 Reference value :  2.51027e-06
 Reference value :  2.51138e-06
 Reference value :  2.51510e-06
 Reference value :  2.51866e-06
 Reference value :  2.52532e-06
 Reference value :  2.55772e-06
 Reference value :  2.59884e-06
 Reference value :  2.68108e-06
 Reference value :  2.75011e-06
 Reference value :  2.75013e-06
 Reference value :  2.75017e-06
 Reference value :  2.75020e-06
 Reference value :  2.75021e-06
 Reference value :  2.75026e-06
 Reference value :  2.75032e-06
 Reference value :  2.75045e-06
 Reference value :  2.75070e-06
 Reference value :  2.75101e-06
 Reference value :  2.75150e-06
 Reference value :  2.75202e-06
 Reference value :  2.75252e-06
 Reference value :  2.75326e-06
 Reference value :  2.75378e-06
 Reference value :  2.75437e-06
 Reference value :  2.75490e-06
 Reference value :  2.75548e-06
 Reference value :  2.75627e-06
 Reference value :  2.75712e-06
 Reference value :  2.75794e-06
 Reference value :  2.75894e-06
 Reference value :  2.76020e-06
 Reference value :  2.76167e-06
 Reference value :  2.76712e-06
 Reference value :  2.78169e-06
 Reference value :  2.79614e-06
 Reference value :  2.87068e-06
 Reference value :  2.96680e-06
 Reference value :  3.00001e-06
 Reference value :  3.00003e-06
 Reference value :  3.00007e-06
 Reference value :  3.00010e-06
 Reference value :  3.00012e-06
 Reference value :  3.00016e-06
 Reference value :  3.00022e-06
 Reference value :  3.00034e-06
 Reference value :  3.00086e-06
 Reference value :  3.00131e-06
 Reference value :  3.00182e-06
 Reference value :  3.00230e-06
 Reference value :  3.00278e-06
 Reference value :  3.00334e-06
 Reference value :  3.00392e-06
 Reference value :  3.00457e-06
 Reference value :  3.00518e-06
 Reference value :  3.00575e-06
 Reference value :  3.00641e-06
 Reference value :  3.00726e-06
 Reference value :  3.00818e-06
 Reference value :  3.00935e-06
 Reference value :  3.01043e-06
 Reference value :  3.01147e-06
 Reference value :  3.01263e-06
 Reference value :  3.01351e-06
 Reference value :  3.01436e-06
 Reference value :  3.01534e-06
 Reference value :  3.01636e-06
 Reference value :  3.01735e-06
 Reference value :  3.01850e-06
 Reference value :  3.01969e-06
 Reference value :  3.02155e-06
 Reference value :  3.02762e-06
 Reference value :  3.04706e-06
 Reference value :  3.06795e-06
 Reference value :  3.09103e-06
 Reference value :  3.11766e-06
 Reference value :  3.14468e-06
 Reference value :  3.16985e-06
 Reference value :  3.19130e-06
 Reference value :  3.21296e-06
 Reference value :  3.22824e-06
 Reference value :  3.24767e-06
 Reference value :  3.25010e-06
 Reference value :  3.25011e-06
 Reference value :  3.25013e-06
 Reference value :  3.25017e-06
 Reference value :  3.25020e-06
 Reference value :  3.25021e-06
 Reference value :  3.25022e-06
 Reference value :  3.25026e-06
 Reference value :  3.25032e-06
 Reference value :  3.25045e-06
 Reference value :  3.25070e-06
 Reference value :  3.25101e-06
 Reference value :  3.25150e-06
 Reference value :  3.25202e-06
 Reference value :  3.25251e-06
 Reference value :  3.25326e-06
 Reference value :  3.25377e-06
 Reference value :  3.25434e-06
 Reference value :  3.25494e-06
 Reference value :  3.25557e-06
 Reference value :  3.25639e-06
 Reference value :  3.25777e-06
 Reference value :  3.25923e-06
 Reference value :  3.26196e-06
 Reference value :  3.26523e-06
 Reference value :  3.27177e-06
 Reference value :  3.28485e-06
 Reference value :  3.31101e-06
 Reference value :  3.43850e-06
 Reference value :  3.50000e-06
 Reference value :  3.50001e-06
 Reference value :  3.50003e-06
 Reference value :  3.50007e-06
 Reference value :  3.50010e-06
 Reference value :  3.50011e-06
 Reference value :  3.50012e-06
 Reference value :  3.50016e-06
 Reference value :  3.50022e-06
 Reference value :  3.50034e-06
 Reference value :  3.50052e-06
 Reference value :  3.50086e-06
 Reference value :  3.50131e-06
 Reference value :  3.50174e-06
 Reference value :  3.50222e-06
 Reference value :  3.50267e-06
 Reference value :  3.50320e-06
 Reference value :  3.50377e-06
 Reference value :  3.50440e-06
 Reference value :  3.50520e-06
 Reference value :  3.50602e-06
 Reference value :  3.50671e-06
 Reference value :  3.50744e-06
 Reference value :  3.50837e-06
 Reference value :  3.50934e-06
 Reference value :  3.51027e-06
 Reference value :  3.51138e-06
 Reference value :  3.51262e-06
 Reference value :  3.51509e-06
 Reference value :  3.51863e-06
 Reference value :  3.52523e-06
 Reference value :  3.53693e-06
 Reference value :  3.55719e-06
 Reference value :  3.59773e-06
 Reference value :  3.67879e-06
 Reference value :  3.75010e-06
 Reference value :  3.75011e-06
 Reference value :  3.75013e-06
 Reference value :  3.75017e-06
 Reference value :  3.75020e-06
 Reference value :  3.75021e-06
 Reference value :  3.75026e-06
 Reference value :  3.75032e-06
 Reference value :  3.75045e-06
 Reference value :  3.75070e-06
 Reference value :  3.75101e-06
 Reference value :  3.75150e-06
 Reference value :  3.75202e-06
 Reference value :  3.75251e-06
 Reference value :  3.75326e-06
 Reference value :  3.75377e-06
 Reference value :  3.75436e-06
 Reference value :  3.75489e-06
 Reference value :  3.75548e-06
 Reference value :  3.75627e-06
 Reference value :  3.75711e-06
 Reference value :  3.75793e-06
 Reference value :  3.75893e-06
 Reference value :  3.76018e-06
 Reference value :  3.76166e-06
 Reference value :  3.76408e-06
 Reference value :  3.77310e-06
 Reference value :  3.79596e-06
 Reference value :  3.86890e-06
 Reference value :  4.00000e-06
 Reference value :  4.00003e-06
 Reference value :  4.00010e-06
 Reference value :  4.00012e-06
 Reference value :  4.00022e-06
 Reference value :  4.00034e-06
 Reference value :  4.00052e-06
 Reference value :  4.00131e-06
 Reference value :  4.00182e-06
 Reference value :  4.00230e-06
 Reference value :  4.00278e-06
 Reference value :  4.00334e-06
 Reference value :  4.00392e-06
 Reference value :  4.00457e-06
 Reference value :  4.00518e-06
 Reference value :  4.00575e-06
 Reference value :  4.00641e-06
 Reference value :  4.00726e-06
 Reference value :  4.00818e-06
 Reference value :  4.00935e-06
 Reference value :  4.01043e-06
 Reference value :  4.01147e-06
 Reference value :  4.01263e-06
 Reference value :  4.01350e-06
 Reference value :  4.01435e-06
 Reference value :  4.01534e-06
 Reference value :  4.01636e-06
 Reference value :  4.01735e-06
 Reference value :  4.01849e-06
 Reference value :  4.01967e-06
 Reference value :  4.02154e-06
 Reference value :  4.02354e-06
 Reference value :  4.02756e-06
 Reference value :  4.03197e-06
 Reference value :  4.03620e-06
 Reference value :  4.04105e-06
 Reference value :  4.04547e-06
 Reference value :  4.04858e-06
 Reference value :  4.05168e-06
 Reference value :  4.05489e-06
 Reference value :  4.05857e-06
 Reference value :  4.06415e-06
 Reference value :  4.07149e-06
 Reference value :  4.08397e-06
 Reference value :  4.09546e-06
 Reference value :  4.10823e-06
 Reference value :  4.12211e-06
 Reference value :  4.13673e-06
 Reference value :  4.16158e-06
 Reference value :  4.19756e-06
 Reference value :  4.25010e-06
 Reference value :  4.25011e-06
 Reference value :  4.25013e-06
 Reference value :  4.25017e-06
 Reference value :  4.25020e-06
 Reference value :  4.25021e-06
 Reference value :  4.25022e-06
 Reference value :  4.25026e-06
 Reference value :  4.25032e-06
 Reference value :  4.25045e-06
 Reference value :  4.25070e-06
 Reference value :  4.25101e-06
 Reference value :  4.25150e-06
 Reference value :  4.25202e-06
 Reference value :  4.25251e-06
 Reference value :  4.25325e-06
 Reference value :  4.25378e-06
 Reference value :  4.25439e-06
 Reference value :  4.25497e-06
 Reference value :  4.25560e-06
 Reference value :  4.25647e-06
 Reference value :  4.25769e-06
 Reference value :  4.26185e-06
 Reference value :  4.26536e-06
 Reference value :  4.27238e-06
 Reference value :  4.28642e-06
 Reference value :  4.31451e-06
 Reference value :  4.37068e-06
 Reference value :  4.48302e-06
 Reference value :  4.50000e-06
 Reference value :  4.50001e-06
 Reference value :  4.50003e-06
 Reference value :  4.50007e-06
 Reference value :  4.50010e-06
 Reference value :  4.50012e-06
 Reference value :  4.50022e-06
 Reference value :  4.50034e-06
 Reference value :  4.50052e-06
 Reference value :  4.50086e-06
 Reference value :  4.50131e-06
 Reference value :  4.50182e-06
 Reference value :  4.50231e-06
 Reference value :  4.50278e-06
 Reference value :  4.50333e-06
 Reference value :  4.50391e-06
 Reference value :  4.50455e-06
 Reference value :  4.50549e-06
 Reference value :  4.50638e-06
 Reference value :  4.50718e-06
 Reference value :  4.50805e-06
 Reference value :  4.50888e-06
 Reference value :  4.50982e-06
 Reference value :  4.51087e-06
 Reference value :  4.51425e-06
 Reference value :  4.51875e-06
 Reference value :  4.52767e-06
 Reference value :  4.54551e-06
 Reference value :  4.58118e-06
 Reference value :  4.75010e-06
 Reference value :  4.75011e-06
 Reference value :  4.75013e-06
 Reference value :  4.75020e-06
 Reference value :  4.75022e-06
 Reference value :  4.75032e-06
 Reference value :  4.75070e-06
 Reference value :  4.75101e-06
 Reference value :  4.75150e-06
 Reference value :  4.75202e-06
 Reference value :  4.75251e-06
 Reference value :  4.75325e-06
 Reference value :  4.75377e-06
 Reference value :  4.75437e-06
 Reference value :  4.75490e-06
 Reference value :  4.75548e-06
 Reference value :  4.75626e-06
 Reference value :  4.75711e-06
 Reference value :  4.75878e-06
 Reference value :  4.76088e-06
 Reference value :  4.76412e-06
 Reference value :  4.76988e-06
 Reference value :  4.80444e-06
 Reference value :  4.85052e-06
 Reference value :  4.94268e-06
 Reference value :  5.00000e-06
 Reference value :  5.00003e-06
 Reference value :  5.00007e-06
 Reference value :  5.00010e-06
 Reference value :  5.00011e-06
 Reference value :  5.00016e-06
 Reference value :  5.00022e-06
 Reference value :  5.00034e-06
 Reference value :  5.00052e-06
 Reference value :  5.00086e-06
 Reference value :  5.00131e-06
 Reference value :  5.00182e-06
 Reference value :  5.00231e-06
 Reference value :  5.00278e-06
 Reference value :  5.00332e-06
 Reference value :  5.00390e-06
 Reference value :  5.00449e-06
 Reference value :  5.00521e-06
 Reference value :  5.00584e-06
 Reference value :  5.00650e-06
 Reference value :  5.00747e-06
 Reference value :  5.00836e-06
 Reference value :  5.00976e-06
 Reference value :  5.01132e-06
 Reference value :  5.01278e-06
 Reference value :  5.01389e-06
 Reference value :  5.01496e-06
 Reference value :  5.01611e-06
 Reference value :  5.01715e-06
 Reference value :  5.01824e-06
 Reference value :  5.01944e-06
 Reference value :  5.02134e-06
 Reference value :  5.02307e-06
 Reference value :  5.02651e-06
 Reference value :  5.03175e-06
 Reference value :  5.03975e-06
 Reference value :  5.05158e-06
 Reference value :  5.06413e-06
 Reference value :  5.08847e-06
 Reference value :  5.11302e-06
 Reference value :  5.16213e-06
 Reference value :  5.22896e-06
 Reference value :  5.25010e-06
 Reference value :  5.25011e-06
 Reference value :  5.25013e-06
 Reference value :  5.25017e-06
 Reference value :  5.25020e-06
 Reference value :  5.25022e-06
 Reference value :  5.25026e-06
 Reference value :  5.25032e-06
 Reference value :  5.25045e-06
 Reference value :  5.25070e-06
 Reference value :  5.25101e-06
 Reference value :  5.25150e-06
 Reference value :  5.25202e-06
 Reference value :  5.25251e-06
 Reference value :  5.25325e-06
 Reference value :  5.25378e-06
 Reference value :  5.25439e-06
 Reference value :  5.25497e-06
 Reference value :  5.25559e-06
 Reference value :  5.25647e-06
 Reference value :  5.25767e-06
 Reference value :  5.25926e-06
 Reference value :  5.26181e-06
 Reference value :  5.26533e-06
 Reference value :  5.27236e-06
 Reference value :  5.31456e-06
 Reference value :  5.48333e-06
 Reference value :  5.50001e-06
 Reference value :  5.50003e-06
 Reference value :  5.50007e-06
 Reference value :  5.50010e-06
 Reference value :  5.50011e-06
 Reference value :  5.50012e-06
 Reference value :  5.50022e-06
 Reference value :  5.50034e-06
 Reference value :  5.50052e-06
 Reference value :  5.50086e-06
 Reference value :  5.50131e-06
 Reference value :  5.50182e-06
 Reference value :  5.50231e-06
 Reference value :  5.50278e-06
 Reference value :  5.50333e-06
 Reference value :  5.50391e-06
 Reference value :  5.50455e-06
 Reference value :  5.50550e-06
 Reference value :  5.50639e-06
 Reference value :  5.50719e-06
 Reference value :  5.50806e-06
 Reference value :  5.50889e-06
 Reference value :  5.51088e-06
 Reference value :  5.51425e-06
 Reference value :  5.52767e-06
 Reference value :  5.58120e-06
 Reference value :  5.75010e-06
 Reference value :  5.75011e-06
 Reference value :  5.75013e-06
 Reference value :  5.75017e-06
 Reference value :  5.75020e-06
 Reference value :  5.75022e-06
 Reference value :  5.75032e-06
 Reference value :  5.75045e-06
 Reference value :  5.75070e-06
 Reference value :  5.75101e-06
 Reference value :  5.75150e-06
 Reference value :  5.75202e-06
 Reference value :  5.75251e-06
 Reference value :  5.75325e-06
 Reference value :  5.75377e-06
 Reference value :  5.75436e-06
 Reference value :  5.75490e-06
 Reference value :  5.75548e-06
 Reference value :  5.75626e-06
 Reference value :  5.75711e-06
 Reference value :  5.75877e-06
 Reference value :  5.76087e-06
 Reference value :  5.76987e-06
 Reference value :  5.78139e-06
 Reference value :  5.85049e-06
 Reference value :  6.00000e-06
 Reference value :  6.00003e-06
 Reference value :  6.00010e-06
 Reference value :  6.00012e-06
 Reference value :  6.00022e-06
 Reference value :  6.00052e-06
 Reference value :  6.00086e-06
 Reference value :  6.00131e-06
 Reference value :  6.00182e-06
 Reference value :  6.00231e-06
 Reference value :  6.00278e-06
 Reference value :  6.00332e-06
 Reference value :  6.00390e-06
 Reference value :  6.00449e-06
 Reference value :  6.00521e-06
 Reference value :  6.00584e-06
 Reference value :  6.00650e-06
 Reference value :  6.00747e-06
 Reference value :  6.00837e-06
 Reference value :  6.00976e-06
 Reference value :  6.01132e-06
 Reference value :  6.01278e-06
 Reference value :  6.01389e-06
 Reference value :  6.01611e-06
 Reference value :  6.01716e-06
 Reference value :  6.01825e-06
 Reference value :  6.01944e-06
 Reference value :  6.02135e-06
 Reference value :  6.02653e-06
 Reference value :  6.03928e-06
 Reference value :  6.05052e-06
 Reference value :  6.08854e-06
 Reference value :  6.21491e-06
 Reference value :  6.25011e-06
 Reference value :  6.25017e-06
 Reference value :  6.25020e-06
 Reference value :  6.25022e-06
 Reference value :  6.25032e-06
 Reference value :  6.25070e-06
 Reference value :  6.25101e-06
 Reference value :  6.25150e-06
 Reference value :  6.25202e-06
 Reference value :  6.25251e-06
 Reference value :  6.25325e-06
 Reference value :  6.25378e-06
 Reference value :  6.25439e-06
 Reference value :  6.25497e-06
 Reference value :  6.25559e-06
 Reference value :  6.25647e-06
 Reference value :  6.25767e-06
 Reference value :  6.26182e-06
 Reference value :  6.26534e-06
 Reference value :  6.27237e-06
 Reference value :  6.31457e-06
 Reference value :  6.37084e-06
 Reference value :  6.50000e-06
 Reference value :  6.50003e-06
 Reference value :  6.50007e-06
 Reference value :  6.50011e-06
 Reference value :  6.50016e-06
 Reference value :  6.50022e-06
 Reference value :  6.50034e-06
 Reference value :  6.50052e-06
 Reference value :  6.50086e-06
 Reference value :  6.50131e-06
 Reference value :  6.50182e-06
 Reference value :  6.50231e-06
 Reference value :  6.50278e-06
 Reference value :  6.50333e-06
 Reference value :  6.50391e-06
 Reference value :  6.50550e-06
 Reference value :  6.50639e-06
 Reference value :  6.50719e-06
 Reference value :  6.50806e-06
 Reference value :  6.50889e-06
 Reference value :  6.50983e-06
 Reference value :  6.51088e-06
 Reference value :  6.51425e-06
 Reference value :  6.51875e-06
 Reference value :  6.54550e-06
 Reference value :  6.65250e-06
 Reference value :  6.75011e-06
 Reference value :  6.75013e-06
 Reference value :  6.75017e-06
 Reference value :  6.75020e-06
 Reference value :  6.75022e-06
 Reference value :  6.75026e-06
 Reference value :  6.75032e-06
 Reference value :  6.75045e-06
 Reference value :  6.75070e-06
 Reference value :  6.75101e-06
 Reference value :  6.75150e-06
 Reference value :  6.75202e-06
 Reference value :  6.75251e-06
 Reference value :  6.75325e-06
 Reference value :  6.75377e-06
 Reference value :  6.75436e-06
 Reference value :  6.75490e-06
 Reference value :  6.75548e-06
 Reference value :  6.75626e-06
 Reference value :  6.75710e-06
 Reference value :  6.75877e-06
 Reference value :  6.76410e-06
 Reference value :  6.78134e-06
 Reference value :  6.85032e-06
 Reference value :  6.94228e-06
 Reference value :  7.00001e-06
 Reference value :  7.00003e-06
 Reference value :  7.00007e-06
 Reference value :  7.00010e-06
 Reference value :  7.00012e-06
 Reference value :  7.00016e-06
 Reference value :  7.00034e-06
 Reference value :  7.00086e-06
 Reference value :  7.00131e-06
 Reference value :  7.00182e-06
 Reference value :  7.00278e-06
 Reference value :  7.00332e-06
 Reference value :  7.00390e-06
 Reference value :  7.00449e-06
 Reference value :  7.00521e-06
 Reference value :  7.00584e-06
 Reference value :  7.00650e-06
 Reference value :  7.00747e-06
 Reference value :  7.00836e-06
 Reference value :  7.00975e-06
 Reference value :  7.01132e-06
 Reference value :  7.01278e-06
 Reference value :  7.01389e-06
 Reference value :  7.01496e-06
 Reference value :  7.01611e-06
 Reference value :  7.01716e-06
 Reference value :  7.01825e-06
 Reference value :  7.01944e-06
 Reference value :  7.02136e-06
 Reference value :  7.02309e-06
 Reference value :  7.02654e-06
 Reference value :  7.03181e-06
 Reference value :  7.03921e-06
 Reference value :  7.04870e-06
 Reference value :  7.05931e-06
 Reference value :  7.06622e-06
 Reference value :  7.07366e-06
 Reference value :  7.08438e-06
 Reference value :  7.09526e-06
 Reference value :  7.11241e-06
 Reference value :  7.13154e-06
 Reference value :  7.17255e-06
 Reference value :  7.25010e-06
 Reference value :  7.25011e-06
 Reference value :  7.25013e-06
 Reference value :  7.25017e-06
 Reference value :  7.25021e-06
 Reference value :  7.25026e-06
 Reference value :  7.25032e-06
 Reference value :  7.25045e-06
 Reference value :  7.25070e-06
 Reference value :  7.25101e-06
 Reference value :  7.25150e-06
 Reference value :  7.25202e-06
 Reference value :  7.25251e-06
 Reference value :  7.25325e-06
 Reference value :  7.25375e-06
 Reference value :  7.25432e-06
 Reference value :  7.25493e-06
 Reference value :  7.25556e-06
 Reference value :  7.25779e-06
 Reference value :  7.25923e-06
 Reference value :  7.26522e-06
 Reference value :  7.27170e-06
 Reference value :  7.31056e-06
 Reference value :  7.36237e-06
 Reference value :  7.50000e-06
 Reference value :  7.50003e-06
 Reference value :  7.50007e-06
 Reference value :  7.50011e-06
 Reference value :  7.50016e-06
 Reference value :  7.50034e-06
 Reference value :  7.50052e-06
 Reference value :  7.50086e-06
 Reference value :  7.50131e-06
 Reference value :  7.50175e-06
 Reference value :  7.50223e-06
 Reference value :  7.50268e-06
 Reference value :  7.50322e-06
 Reference value :  7.50379e-06
 Reference value :  7.50442e-06
 Reference value :  7.50521e-06
 Reference value :  7.50604e-06
 Reference value :  7.50673e-06
 Reference value :  7.50746e-06
 Reference value :  7.50840e-06
 Reference value :  7.50937e-06
 Reference value :  7.51032e-06
 Reference value :  7.51145e-06
 Reference value :  7.51271e-06
 Reference value :  7.51855e-06
 Reference value :  7.53561e-06
 Reference value :  7.59085e-06
 Reference value :  7.75010e-06
 Reference value :  7.75013e-06
 Reference value :  7.75020e-06
 Reference value :  7.75021e-06
 Reference value :  7.75026e-06
 Reference value :  7.75032e-06
 Reference value :  7.75045e-06
 Reference value :  7.75070e-06
 Reference value :  7.75101e-06
 Reference value :  7.75150e-06
 Reference value :  7.75202e-06
 Reference value :  7.75251e-06
 Reference value :  7.75325e-06
 Reference value :  7.75377e-06
 Reference value :  7.75436e-06
 Reference value :  7.75490e-06
 Reference value :  7.75548e-06
 Reference value :  7.75626e-06
 Reference value :  7.75711e-06
 Reference value :  7.75792e-06
 Reference value :  7.76017e-06
 Reference value :  7.76405e-06
 Reference value :  7.77305e-06
 Reference value :  7.79569e-06
 Reference value :  7.86613e-06
 Reference value :  7.95801e-06
 Reference value :  8.00001e-06
 Reference value :  8.00003e-06
 Reference value :  8.00010e-06
 Reference value :  8.00012e-06
 Reference value :  8.00016e-06
 Reference value :  8.00022e-06
 Reference value :  8.00034e-06
 Reference value :  8.00086e-06
 Reference value :  8.00182e-06
 Reference value :  8.00231e-06
 Reference value :  8.00278e-06
 Reference value :  8.00334e-06
 Reference value :  8.00393e-06
 Reference value :  8.00457e-06
 Reference value :  8.00518e-06
 Reference value :  8.00575e-06
 Reference value :  8.00641e-06
 Reference value :  8.00725e-06
 Reference value :  8.00806e-06
 Reference value :  8.00890e-06
 Reference value :  8.00962e-06
 Reference value :  8.01153e-06
 Reference value :  8.01499e-06
 Reference value :  8.01575e-06
 Reference value :  8.01673e-06
 Reference value :  8.01788e-06
 Reference value :  8.02481e-06
 Reference value :  8.03184e-06
 Reference value :  8.07405e-06
 Reference value :  8.10333e-06
 Reference value :  8.13449e-06
 Reference value :  8.18779e-06
 Reference value :  8.23889e-06
 Reference value :  8.25010e-06
 Reference value :  8.25011e-06
 Reference value :  8.25017e-06
 Reference value :  8.25020e-06
 Reference value :  8.25021e-06
 Reference value :  8.25022e-06
 Reference value :  8.25032e-06
 Reference value :  8.25045e-06
 Reference value :  8.25070e-06
 Reference value :  8.25101e-06
 Reference value :  8.25150e-06
 Reference value :  8.25202e-06
 Reference value :  8.25251e-06
 Reference value :  8.25324e-06
 Reference value :  8.25400e-06
 Reference value :  8.25501e-06
 Reference value :  8.25602e-06
 Reference value :  8.25854e-06
 Reference value :  8.26021e-06
 Reference value :  8.26795e-06
 Reference value :  8.29657e-06
 Reference value :  8.37648e-06
 Reference value :  8.42367e-06
 Reference value :  8.47142e-06
 Reference value :  8.50000e-06
No. of Data Rows : 1220
ngspice-44 done
