
Note: Compatibility modes selected: hs a


Circuit: ** sch_path: /home/audrey/cace/sar-adc-using-sky130-pdk/runs/run_2025-09-09_12-17-19/parameters/power/run_3/power_consumption.sch

option SCALE: Scale is set to 1e-06 for instance and model parameters
option SCALE: Scale is set to 1e-06 for instance and model parameters
option SCALE: Scale is set to 1e-06 for instance and model parameters
option SCALE: Scale is set to 1e-06 for instance and model parameters
Doing analysis at TEMP = 27.000000 and TNOM = 27.000000

Using KLU as Direct Linear Solver
 Reference value :  0.00000e+00
 Reference value :  1.00000e-12
 Reference value :  4.00000e-12
 Reference value :  1.60000e-11
 Reference value :  6.40000e-11
 Reference value :  1.00000e-10
 Reference value :  1.06400e-10
 Reference value :  1.44800e-10
 Reference value :  1.96000e-10
 Reference value :  4.37234e-10
 Reference value :  7.14901e-10
 Reference value :  1.04540e-09
 Reference value :  1.44343e-09
 Reference value :  1.79883e-09
 Reference value :  2.65281e-09
 Reference value :  3.03596e-09
 Reference value :  3.99569e-09
 Reference value :  4.52930e-09
 Reference value :  5.10263e-09
 Reference value :  6.49585e-09
 Reference value :  8.28739e-09
 Reference value :  1.03299e-08
 Reference value :  1.22169e-08
 Reference value :  1.38929e-08
 Reference value :  1.57620e-08
 Reference value :  1.89364e-08
 Reference value :  2.20559e-08
 Reference value :  2.42503e-08
 Reference value :  2.59073e-08
 Reference value :  3.31569e-08
 Reference value :  4.09208e-08
 Reference value :  7.53244e-08
 Reference value :  2.43000e-07
 Reference value :  2.50130e-07
 Reference value :  2.50207e-07
 Reference value :  2.50307e-07
 Reference value :  2.50654e-07
 Reference value :  2.51239e-07
 Reference value :  2.52104e-07
 Reference value :  2.52708e-07
 Reference value :  2.53485e-07
 Reference value :  2.54052e-07
 Reference value :  2.55370e-07
 Reference value :  2.56964e-07
 Reference value :  2.59503e-07
 Reference value :  2.72184e-07
 Reference value :  3.03659e-07
 Reference value :  3.40664e-07
 Reference value :  4.59368e-07
 Reference value :  5.00000e-07
 Reference value :  5.00100e-07
 Reference value :  5.00156e-07
 Reference value :  5.00337e-07
 Reference value :  5.00825e-07
 Reference value :  5.01759e-07
 Reference value :  5.02189e-07
 Reference value :  5.02679e-07
 Reference value :  5.03238e-07
 Reference value :  5.03827e-07
 Reference value :  5.04462e-07
 Reference value :  5.06213e-07
 Reference value :  5.07253e-07
 Reference value :  5.08828e-07
 Reference value :  5.09966e-07
 Reference value :  5.11229e-07
 Reference value :  5.12547e-07
 Reference value :  5.15554e-07
 Reference value :  5.17358e-07
 Reference value :  5.21585e-07
 Reference value :  5.35833e-07
 Reference value :  5.52812e-07
 Reference value :  5.94450e-07
 Reference value :  7.50110e-07
 Reference value :  7.50200e-07
 Reference value :  7.50255e-07
 Reference value :  7.50445e-07
 Reference value :  7.50686e-07
 Reference value :  7.51388e-07
 Reference value :  7.52369e-07
 Reference value :  7.53789e-07
 Reference value :  7.54411e-07
 Reference value :  7.55794e-07
 Reference value :  7.56686e-07
 Reference value :  7.58420e-07
 Reference value :  7.59324e-07
 Reference value :  7.62128e-07
 Reference value :  7.75041e-07
 Reference value :  8.50511e-07
 Reference value :  1.00000e-06
 Reference value :  1.00003e-06
 Reference value :  1.00010e-06
 Reference value :  1.00016e-06
 Reference value :  1.00034e-06
 Reference value :  1.00083e-06
 Reference value :  1.00128e-06
 Reference value :  1.00219e-06
 Reference value :  1.00329e-06
 Reference value :  1.00442e-06
 Reference value :  1.00557e-06
 Reference value :  1.00670e-06
 Reference value :  1.00842e-06
 Reference value :  1.01070e-06
 Reference value :  1.01172e-06
 Reference value :  1.01368e-06
 Reference value :  1.01546e-06
 Reference value :  1.01645e-06
 Reference value :  1.01853e-06
 Reference value :  1.02126e-06
 Reference value :  1.03185e-06
 Reference value :  1.05413e-06
 Reference value :  1.08321e-06
 Reference value :  1.09597e-06
 Reference value :  1.10172e-06
 Reference value :  1.11266e-06
 Reference value :  1.14767e-06
 Reference value :  1.25010e-06
 Reference value :  1.25017e-06
 Reference value :  1.25022e-06
 Reference value :  1.25044e-06
 Reference value :  1.25138e-06
 Reference value :  1.25236e-06
 Reference value :  1.25378e-06
 Reference value :  1.25439e-06
 Reference value :  1.25572e-06
 Reference value :  1.25922e-06
 Reference value :  1.26562e-06
 Reference value :  1.28509e-06
 Reference value :  1.41777e-06
 Reference value :  1.50001e-06
 Reference value :  1.50007e-06
 Reference value :  1.50011e-06
 Reference value :  1.50016e-06
 Reference value :  1.50034e-06
 Reference value :  1.50128e-06
 Reference value :  1.50219e-06
 Reference value :  1.50323e-06
 Reference value :  1.50442e-06
 Reference value :  1.50616e-06
 Reference value :  1.50930e-06
 Reference value :  1.51158e-06
 Reference value :  1.51551e-06
 Reference value :  1.54497e-06
 Reference value :  1.75011e-06
 Reference value :  1.75020e-06
 Reference value :  1.75026e-06
 Reference value :  1.75068e-06
 Reference value :  1.75138e-06
 Reference value :  1.75302e-06
 Reference value :  1.75441e-06
 Reference value :  1.75578e-06
 Reference value :  1.75760e-06
 Reference value :  1.76567e-06
 Reference value :  1.80726e-06
 Reference value :  2.00000e-06
 Reference value :  2.00003e-06
 Reference value :  2.00010e-06
 Reference value :  2.00016e-06
 Reference value :  2.00034e-06
 Reference value :  2.00083e-06
 Reference value :  2.00128e-06
 Reference value :  2.00219e-06
 Reference value :  2.00329e-06
 Reference value :  2.00391e-06
 Reference value :  2.00441e-06
 Reference value :  2.00557e-06
 Reference value :  2.00609e-06
 Reference value :  2.00757e-06
 Reference value :  2.00999e-06
 Reference value :  2.01280e-06
 Reference value :  2.01493e-06
 Reference value :  2.01603e-06
 Reference value :  2.01707e-06
 Reference value :  2.01937e-06
 Reference value :  2.02607e-06
 Reference value :  2.05840e-06
 Reference value :  2.17731e-06
 Reference value :  2.25013e-06
 Reference value :  2.25021e-06
 Reference value :  2.25032e-06
 Reference value :  2.25068e-06
 Reference value :  2.25138e-06
 Reference value :  2.25236e-06
 Reference value :  2.25378e-06
 Reference value :  2.25439e-06
 Reference value :  2.25572e-06
 Reference value :  2.25763e-06
 Reference value :  2.26563e-06
 Reference value :  2.30683e-06
 Reference value :  2.50000e-06
 Reference value :  2.50003e-06
 Reference value :  2.50010e-06
 Reference value :  2.50016e-06
 Reference value :  2.50034e-06
 Reference value :  2.50128e-06
 Reference value :  2.50219e-06
 Reference value :  2.50268e-06
 Reference value :  2.50382e-06
 Reference value :  2.50443e-06
 Reference value :  2.50617e-06
 Reference value :  2.50819e-06
 Reference value :  2.51037e-06
 Reference value :  2.51289e-06
 Reference value :  2.52869e-06
 Reference value :  2.57828e-06
 Reference value :  2.75011e-06
 Reference value :  2.75020e-06
 Reference value :  2.75026e-06
 Reference value :  2.75068e-06
 Reference value :  2.75138e-06
 Reference value :  2.75235e-06
 Reference value :  2.75377e-06
 Reference value :  2.75440e-06
 Reference value :  2.75577e-06
 Reference value :  2.75759e-06
 Reference value :  2.76559e-06
 Reference value :  2.80642e-06
 Reference value :  3.00000e-06
 Reference value :  3.00003e-06
 Reference value :  3.00011e-06
 Reference value :  3.00022e-06
 Reference value :  3.00050e-06
 Reference value :  3.00128e-06
 Reference value :  3.00219e-06
 Reference value :  3.00329e-06
 Reference value :  3.00441e-06
 Reference value :  3.00557e-06
 Reference value :  3.00609e-06
 Reference value :  3.00757e-06
 Reference value :  3.00999e-06
 Reference value :  3.01280e-06
 Reference value :  3.01493e-06
 Reference value :  3.01707e-06
 Reference value :  3.02272e-06
 Reference value :  3.05611e-06
 Reference value :  3.08644e-06
 Reference value :  3.09744e-06
 Reference value :  3.11738e-06
 Reference value :  3.13346e-06
 Reference value :  3.19119e-06
 Reference value :  3.25011e-06
 Reference value :  3.25020e-06
 Reference value :  3.25026e-06
 Reference value :  3.25068e-06
 Reference value :  3.25138e-06
 Reference value :  3.25236e-06
 Reference value :  3.25373e-06
 Reference value :  3.25509e-06
 Reference value :  3.25675e-06
 Reference value :  3.26184e-06
 Reference value :  3.26545e-06
 Reference value :  3.26943e-06
 Reference value :  3.27631e-06
 Reference value :  3.29089e-06
 Reference value :  3.34528e-06
 Reference value :  3.50000e-06
 Reference value :  3.50007e-06
 Reference value :  3.50012e-06
 Reference value :  3.50034e-06
 Reference value :  3.50128e-06
 Reference value :  3.50219e-06
 Reference value :  3.50323e-06
 Reference value :  3.50443e-06
 Reference value :  3.50617e-06
 Reference value :  3.50820e-06
 Reference value :  3.51037e-06
 Reference value :  3.51288e-06
 Reference value :  3.54465e-06
 Reference value :  3.75010e-06
 Reference value :  3.75017e-06
 Reference value :  3.75022e-06
 Reference value :  3.75068e-06
 Reference value :  3.75138e-06
 Reference value :  3.75235e-06
 Reference value :  3.75377e-06
 Reference value :  3.75506e-06
 Reference value :  3.75671e-06
 Reference value :  3.76143e-06
 Reference value :  3.80587e-06
 Reference value :  4.00001e-06
 Reference value :  4.00010e-06
 Reference value :  4.00016e-06
 Reference value :  4.00083e-06
 Reference value :  4.00176e-06
 Reference value :  4.00268e-06
 Reference value :  4.00391e-06
 Reference value :  4.00498e-06
 Reference value :  4.00557e-06
 Reference value :  4.00671e-06
 Reference value :  4.00999e-06
 Reference value :  4.01280e-06
 Reference value :  4.01492e-06
 Reference value :  4.01707e-06
 Reference value :  4.01936e-06
 Reference value :  4.02606e-06
 Reference value :  4.03903e-06
 Reference value :  4.04189e-06
 Reference value :  4.04759e-06
 Reference value :  4.05486e-06
 Reference value :  4.06493e-06
 Reference value :  4.07627e-06
 Reference value :  4.13076e-06
 Reference value :  4.25010e-06
 Reference value :  4.25013e-06
 Reference value :  4.25021e-06
 Reference value :  4.25032e-06
 Reference value :  4.25069e-06
 Reference value :  4.25138e-06
 Reference value :  4.25302e-06
 Reference value :  4.25440e-06
 Reference value :  4.25578e-06
 Reference value :  4.26185e-06
 Reference value :  4.28494e-06
 Reference value :  4.40491e-06
 Reference value :  4.50003e-06
 Reference value :  4.50011e-06
 Reference value :  4.50022e-06
 Reference value :  4.50083e-06
 Reference value :  4.50176e-06
 Reference value :  4.50332e-06
 Reference value :  4.50473e-06
 Reference value :  4.50657e-06
 Reference value :  4.50734e-06
 Reference value :  4.50903e-06
 Reference value :  4.51241e-06
 Reference value :  4.52890e-06
 Reference value :  4.65954e-06
 Reference value :  4.75013e-06
 Reference value :  4.75021e-06
 Reference value :  4.75032e-06
 Reference value :  4.75068e-06
 Reference value :  4.75138e-06
 Reference value :  4.75302e-06
 Reference value :  4.75439e-06
 Reference value :  4.75576e-06
 Reference value :  4.75842e-06
 Reference value :  4.76214e-06
 Reference value :  4.77523e-06
 Reference value :  4.92624e-06
 Reference value :  5.00003e-06
 Reference value :  5.00012e-06
 Reference value :  5.00034e-06
 Reference value :  5.00128e-06
 Reference value :  5.00219e-06
 Reference value :  5.00329e-06
 Reference value :  5.00441e-06
 Reference value :  5.00556e-06
 Reference value :  5.00670e-06
 Reference value :  5.00843e-06
 Reference value :  5.01071e-06
 Reference value :  5.01285e-06
 Reference value :  5.01449e-06
 Reference value :  5.01652e-06
 Reference value :  5.01881e-06
 Reference value :  5.02369e-06
 Reference value :  5.03268e-06
 Reference value :  5.03894e-06
 Reference value :  5.04369e-06
 Reference value :  5.06131e-06
 Reference value :  5.08255e-06
 Reference value :  5.09255e-06
 Reference value :  5.10709e-06
 Reference value :  5.14720e-06
 Reference value :  5.19273e-06
 Reference value :  5.25010e-06
 Reference value :  5.25017e-06
 Reference value :  5.25026e-06
 Reference value :  5.25069e-06
 Reference value :  5.25138e-06
 Reference value :  5.25302e-06
 Reference value :  5.25442e-06
 Reference value :  5.25678e-06
 Reference value :  5.26189e-06
 Reference value :  5.28497e-06
 Reference value :  5.50000e-06
 Reference value :  5.50007e-06
 Reference value :  5.50012e-06
 Reference value :  5.50034e-06
 Reference value :  5.50129e-06
 Reference value :  5.50218e-06
 Reference value :  5.50395e-06
 Reference value :  5.50553e-06
 Reference value :  5.50734e-06
 Reference value :  5.50903e-06
 Reference value :  5.51241e-06
 Reference value :  5.54761e-06
 Reference value :  5.75010e-06
 Reference value :  5.75017e-06
 Reference value :  5.75026e-06
 Reference value :  5.75044e-06
 Reference value :  5.75068e-06
 Reference value :  5.75138e-06
 Reference value :  5.75235e-06
 Reference value :  5.75302e-06
 Reference value :  5.75376e-06
 Reference value :  5.75439e-06
 Reference value :  5.75576e-06
 Reference value :  5.75670e-06
 Reference value :  5.75842e-06
 Reference value :  5.76074e-06
 Reference value :  5.76830e-06
 Reference value :  5.80741e-06
 Reference value :  5.92414e-06
 Reference value :  6.00001e-06
 Reference value :  6.00007e-06
 Reference value :  6.00011e-06
 Reference value :  6.00016e-06
 Reference value :  6.00034e-06
 Reference value :  6.00083e-06
 Reference value :  6.00128e-06
 Reference value :  6.00219e-06
 Reference value :  6.00329e-06
 Reference value :  6.00441e-06
 Reference value :  6.00499e-06
 Reference value :  6.00556e-06
 Reference value :  6.00609e-06
 Reference value :  6.00843e-06
 Reference value :  6.01071e-06
 Reference value :  6.01174e-06
 Reference value :  6.01368e-06
 Reference value :  6.01554e-06
 Reference value :  6.01756e-06
 Reference value :  6.01991e-06
 Reference value :  6.02361e-06
 Reference value :  6.02925e-06
 Reference value :  6.03738e-06
 Reference value :  6.05018e-06
 Reference value :  6.07409e-06
 Reference value :  6.08770e-06
 Reference value :  6.13184e-06
 Reference value :  6.19132e-06
 Reference value :  6.25011e-06
 Reference value :  6.25017e-06
 Reference value :  6.25020e-06
 Reference value :  6.25022e-06
 Reference value :  6.25032e-06
 Reference value :  6.25094e-06
 Reference value :  6.25138e-06
 Reference value :  6.25235e-06
 Reference value :  6.25375e-06
 Reference value :  6.25436e-06
 Reference value :  6.25566e-06
 Reference value :  6.25756e-06
 Reference value :  6.26136e-06
 Reference value :  6.27228e-06
 Reference value :  6.33967e-06
 Reference value :  6.50000e-06
 Reference value :  6.50003e-06
 Reference value :  6.50010e-06
 Reference value :  6.50012e-06
 Reference value :  6.50034e-06
 Reference value :  6.50050e-06
 Reference value :  6.50129e-06
 Reference value :  6.50176e-06
 Reference value :  6.50218e-06
 Reference value :  6.50395e-06
 Reference value :  6.50473e-06
 Reference value :  6.50657e-06
 Reference value :  6.50734e-06
 Reference value :  6.50903e-06
 Reference value :  6.51119e-06
 Reference value :  6.51955e-06
 Reference value :  6.54764e-06
 Reference value :  6.65996e-06
 Reference value :  6.75011e-06
 Reference value :  6.75020e-06
 Reference value :  6.75022e-06
 Reference value :  6.75032e-06
 Reference value :  6.75068e-06
 Reference value :  6.75138e-06
 Reference value :  6.75185e-06
 Reference value :  6.75302e-06
 Reference value :  6.75439e-06
 Reference value :  6.75504e-06
 Reference value :  6.75670e-06
 Reference value :  6.75842e-06
 Reference value :  6.76073e-06
 Reference value :  6.76214e-06
 Reference value :  6.77521e-06
 Reference value :  6.80727e-06
 Reference value :  6.92332e-06
 Reference value :  7.00003e-06
 Reference value :  7.00010e-06
 Reference value :  7.00012e-06
 Reference value :  7.00022e-06
 Reference value :  7.00050e-06
 Reference value :  7.00128e-06
 Reference value :  7.00219e-06
 Reference value :  7.00329e-06
 Reference value :  7.00441e-06
 Reference value :  7.00556e-06
 Reference value :  7.00609e-06
 Reference value :  7.00756e-06
 Reference value :  7.00973e-06
 Reference value :  7.01072e-06
 Reference value :  7.01175e-06
 Reference value :  7.01368e-06
 Reference value :  7.01541e-06
 Reference value :  7.01631e-06
 Reference value :  7.01841e-06
 Reference value :  7.01945e-06
 Reference value :  7.02100e-06
 Reference value :  7.02269e-06
 Reference value :  7.02517e-06
 Reference value :  7.02743e-06
 Reference value :  7.03262e-06
 Reference value :  7.03563e-06
 Reference value :  7.04989e-06
 Reference value :  7.06928e-06
 Reference value :  7.14463e-06
 Reference value :  7.25011e-06
 Reference value :  7.25017e-06
 Reference value :  7.25021e-06
 Reference value :  7.25032e-06
 Reference value :  7.25068e-06
 Reference value :  7.25138e-06
 Reference value :  7.25235e-06
 Reference value :  7.25302e-06
 Reference value :  7.25438e-06
 Reference value :  7.25569e-06
 Reference value :  7.25915e-06
 Reference value :  7.26540e-06
 Reference value :  7.30506e-06
 Reference value :  7.50000e-06
 Reference value :  7.50007e-06
 Reference value :  7.50012e-06
 Reference value :  7.50022e-06
 Reference value :  7.50050e-06
 Reference value :  7.50128e-06
 Reference value :  7.50219e-06
 Reference value :  7.50268e-06
 Reference value :  7.50323e-06
 Reference value :  7.50442e-06
 Reference value :  7.50616e-06
 Reference value :  7.50818e-06
 Reference value :  7.51036e-06
 Reference value :  7.51158e-06
 Reference value :  7.51550e-06
 Reference value :  7.52848e-06
 Reference value :  7.64224e-06
 Reference value :  7.75011e-06
 Reference value :  7.75017e-06
 Reference value :  7.75021e-06
 Reference value :  7.75026e-06
 Reference value :  7.75068e-06
 Reference value :  7.75138e-06
 Reference value :  7.75185e-06
 Reference value :  7.75302e-06
 Reference value :  7.75439e-06
 Reference value :  7.75576e-06
 Reference value :  7.75758e-06
 Reference value :  7.76141e-06
 Reference value :  7.77253e-06
 Reference value :  7.80492e-06
 Reference value :  7.90545e-06
 Reference value :  8.00001e-06
 Reference value :  8.00007e-06
 Reference value :  8.00011e-06
 Reference value :  8.00016e-06
 Reference value :  8.00034e-06
 Reference value :  8.00083e-06
 Reference value :  8.00128e-06
 Reference value :  8.00219e-06
 Reference value :  8.00329e-06
 Reference value :  8.00391e-06
 Reference value :  8.00440e-06
 Reference value :  8.00498e-06
 Reference value :  8.00557e-06
 Reference value :  8.00610e-06
 Reference value :  8.00671e-06
 Reference value :  8.00844e-06
 Reference value :  8.01027e-06
 Reference value :  8.01794e-06
 Reference value :  8.07924e-06
 Reference value :  8.25011e-06
 Reference value :  8.25017e-06
 Reference value :  8.25021e-06
 Reference value :  8.25026e-06
 Reference value :  8.25045e-06
 Reference value :  8.25095e-06
 Reference value :  8.25139e-06
 Reference value :  8.25237e-06
 Reference value :  8.25387e-06
 Reference value :  8.25659e-06
 Reference value :  8.26177e-06
 Reference value :  8.29649e-06
 Reference value :  8.49767e-06
No. of Data Rows : 1266
ngspice-44 done
