
Note: Compatibility modes selected: hs a


Circuit: ** sch_path: /home/ece/cace/sar-adc-using-sky130-pdk/runs/run_2025-09-10_19-58-20/parameters/sampling_rate/run_64/sampling_rate.sch

option SCALE: Scale is set to 1e-06 for instance and model parameters
option SCALE: Scale is set to 1e-06 for instance and model parameters
option SCALE: Scale is set to 1e-06 for instance and model parameters
option SCALE: Scale is set to 1e-06 for instance and model parameters
Doing analysis at TEMP = 27.000000 and TNOM = 27.000000

Using KLU as Direct Linear Solver
Operating point simulation skipped by 'uic',
  now using transient initial conditions.
 Reference value :  1.00000e-12
 Reference value :  1.08253e-12
 Reference value :  1.67152e-12
 Reference value :  4.14255e-12
 Reference value :  1.87896e-11
 Reference value :  9.53199e-11
 Reference value :  1.03986e-10
 Reference value :  1.27902e-10
 Reference value :  3.51118e-10
 Reference value :  8.86045e-10
 Reference value :  1.75428e-09
 Reference value :  3.98555e-09
 Reference value :  7.58889e-09
 Reference value :  9.41426e-09
 Reference value :  1.03465e-08
 Reference value :  1.11296e-08
 Reference value :  1.26758e-08
 Reference value :  1.67878e-08
 Reference value :  2.42451e-08
 Reference value :  3.29520e-08
 Reference value :  5.58690e-08
 Reference value :  1.68050e-07
 Reference value :  2.50130e-07
 Reference value :  2.50208e-07
 Reference value :  2.50313e-07
 Reference value :  2.50749e-07
 Reference value :  2.51921e-07
 Reference value :  2.53953e-07
 Reference value :  2.55242e-07
 Reference value :  2.57803e-07
 Reference value :  2.67343e-07
 Reference value :  3.04881e-07
 Reference value :  5.00000e-07
 Reference value :  5.00070e-07
 Reference value :  5.00156e-07
 Reference value :  5.00520e-07
 Reference value :  5.01299e-07
 Reference value :  5.02238e-07
 Reference value :  5.04678e-07
 Reference value :  5.07577e-07
 Reference value :  5.09178e-07
 Reference value :  5.13349e-07
 Reference value :  5.18066e-07
 Reference value :  5.66253e-07
 Reference value :  7.50130e-07
 Reference value :  7.50319e-07
 Reference value :  7.51066e-07
 Reference value :  7.52030e-07
 Reference value :  7.54048e-07
 Reference value :  7.55366e-07
 Reference value :  7.57895e-07
 Reference value :  7.71455e-07
 Reference value :  1.00000e-06
 Reference value :  1.00010e-06
 Reference value :  1.00022e-06
 Reference value :  1.00130e-06
 Reference value :  1.00224e-06
 Reference value :  1.00341e-06
 Reference value :  1.00521e-06
 Reference value :  1.00642e-06
 Reference value :  1.00899e-06
 Reference value :  1.01255e-06
 Reference value :  1.01401e-06
 Reference value :  1.01538e-06
 Reference value :  1.01800e-06
 Reference value :  1.02033e-06
 Reference value :  1.02351e-06
 Reference value :  1.03432e-06
 Reference value :  1.08391e-06
 Reference value :  1.25010e-06
 Reference value :  1.25017e-06
 Reference value :  1.25022e-06
 Reference value :  1.25070e-06
 Reference value :  1.25203e-06
 Reference value :  1.25327e-06
 Reference value :  1.25467e-06
 Reference value :  1.25601e-06
 Reference value :  1.25689e-06
 Reference value :  1.25954e-06
 Reference value :  1.27082e-06
 Reference value :  1.33295e-06
 Reference value :  1.50001e-06
 Reference value :  1.50007e-06
 Reference value :  1.50012e-06
 Reference value :  1.50022e-06
 Reference value :  1.50052e-06
 Reference value :  1.50130e-06
 Reference value :  1.50224e-06
 Reference value :  1.50340e-06
 Reference value :  1.50464e-06
 Reference value :  1.50629e-06
 Reference value :  1.50826e-06
 Reference value :  1.50925e-06
 Reference value :  1.51019e-06
 Reference value :  1.51236e-06
 Reference value :  1.51616e-06
 Reference value :  1.55045e-06
 Reference value :  1.75010e-06
 Reference value :  1.75017e-06
 Reference value :  1.75026e-06
 Reference value :  1.75070e-06
 Reference value :  1.75204e-06
 Reference value :  1.75406e-06
 Reference value :  1.75540e-06
 Reference value :  1.75697e-06
 Reference value :  1.75966e-06
 Reference value :  1.78212e-06
 Reference value :  1.98498e-06
 Reference value :  2.00007e-06
 Reference value :  2.00016e-06
 Reference value :  2.00052e-06
 Reference value :  2.00130e-06
 Reference value :  2.00224e-06
 Reference value :  2.00403e-06
 Reference value :  2.00458e-06
 Reference value :  2.00582e-06
 Reference value :  2.00711e-06
 Reference value :  2.01061e-06
 Reference value :  2.01401e-06
 Reference value :  2.01671e-06
 Reference value :  2.01909e-06
 Reference value :  2.02345e-06
 Reference value :  2.03417e-06
 Reference value :  2.08401e-06
 Reference value :  2.15189e-06
 Reference value :  2.17550e-06
 Reference value :  2.18802e-06
 Reference value :  2.21218e-06
 Reference value :  2.25010e-06
 Reference value :  2.25017e-06
 Reference value :  2.25022e-06
 Reference value :  2.25045e-06
 Reference value :  2.25106e-06
 Reference value :  2.25202e-06
 Reference value :  2.25326e-06
 Reference value :  2.25466e-06
 Reference value :  2.25603e-06
 Reference value :  2.25699e-06
 Reference value :  2.25971e-06
 Reference value :  2.27189e-06
 Reference value :  2.33386e-06
 Reference value :  2.37005e-06
 Reference value :  2.40420e-06
 Reference value :  2.43050e-06
 Reference value :  2.45597e-06
 Reference value :  2.50000e-06
 Reference value :  2.50007e-06
 Reference value :  2.50016e-06
 Reference value :  2.50052e-06
 Reference value :  2.50130e-06
 Reference value :  2.50224e-06
 Reference value :  2.50277e-06
 Reference value :  2.50400e-06
 Reference value :  2.50464e-06
 Reference value :  2.50630e-06
 Reference value :  2.50827e-06
 Reference value :  2.51020e-06
 Reference value :  2.51237e-06
 Reference value :  2.51618e-06
 Reference value :  2.55051e-06
 Reference value :  2.66753e-06
 Reference value :  2.75013e-06
 Reference value :  2.75021e-06
 Reference value :  2.75032e-06
 Reference value :  2.75106e-06
 Reference value :  2.75204e-06
 Reference value :  2.75328e-06
 Reference value :  2.75470e-06
 Reference value :  2.75610e-06
 Reference value :  2.75696e-06
 Reference value :  2.75965e-06
 Reference value :  2.76540e-06
 Reference value :  2.78198e-06
 Reference value :  2.83147e-06
 Reference value :  2.98263e-06
 Reference value :  3.00001e-06
 Reference value :  3.00007e-06
 Reference value :  3.00011e-06
 Reference value :  3.00016e-06
 Reference value :  3.00035e-06
 Reference value :  3.00086e-06
 Reference value :  3.00130e-06
 Reference value :  3.00224e-06
 Reference value :  3.00403e-06
 Reference value :  3.00458e-06
 Reference value :  3.00582e-06
 Reference value :  3.00711e-06
 Reference value :  3.01062e-06
 Reference value :  3.01401e-06
 Reference value :  3.01537e-06
 Reference value :  3.01797e-06
 Reference value :  3.01909e-06
 Reference value :  3.02344e-06
 Reference value :  3.02829e-06
 Reference value :  3.03376e-06
 Reference value :  3.04122e-06
 Reference value :  3.04735e-06
 Reference value :  3.05569e-06
 Reference value :  3.07388e-06
 Reference value :  3.14245e-06
 Reference value :  3.23683e-06
 Reference value :  3.25013e-06
 Reference value :  3.25022e-06
 Reference value :  3.25070e-06
 Reference value :  3.25202e-06
 Reference value :  3.25401e-06
 Reference value :  3.25533e-06
 Reference value :  3.25692e-06
 Reference value :  3.26187e-06
 Reference value :  3.29983e-06
 Reference value :  3.50001e-06
 Reference value :  3.50011e-06
 Reference value :  3.50035e-06
 Reference value :  3.50086e-06
 Reference value :  3.50177e-06
 Reference value :  3.50270e-06
 Reference value :  3.50405e-06
 Reference value :  3.50560e-06
 Reference value :  3.50753e-06
 Reference value :  3.50946e-06
 Reference value :  3.51277e-06
 Reference value :  3.52850e-06
 Reference value :  3.75010e-06
 Reference value :  3.75020e-06
 Reference value :  3.75032e-06
 Reference value :  3.75105e-06
 Reference value :  3.75202e-06
 Reference value :  3.75403e-06
 Reference value :  3.75532e-06
 Reference value :  3.75786e-06
 Reference value :  3.76126e-06
 Reference value :  3.77519e-06
 Reference value :  3.85816e-06
 Reference value :  4.00003e-06
 Reference value :  4.00011e-06
 Reference value :  4.00052e-06
 Reference value :  4.00130e-06
 Reference value :  4.00340e-06
 Reference value :  4.00521e-06
 Reference value :  4.00644e-06
 Reference value :  4.01047e-06
 Reference value :  4.01256e-06
 Reference value :  4.01614e-06
 Reference value :  4.01960e-06
 Reference value :  4.02456e-06
 Reference value :  4.05960e-06
 Reference value :  4.07192e-06
 Reference value :  4.09413e-06
 Reference value :  4.15377e-06
 Reference value :  4.17813e-06
 Reference value :  4.20767e-06
 Reference value :  4.24205e-06
 Reference value :  4.25017e-06
 Reference value :  4.25022e-06
 Reference value :  4.25045e-06
 Reference value :  4.25153e-06
 Reference value :  4.25256e-06
 Reference value :  4.25403e-06
 Reference value :  4.25542e-06
 Reference value :  4.25825e-06
 Reference value :  4.27372e-06
 Reference value :  4.33644e-06
 Reference value :  4.50000e-06
 Reference value :  4.50007e-06
 Reference value :  4.50012e-06
 Reference value :  4.50035e-06
 Reference value :  4.50086e-06
 Reference value :  4.50177e-06
 Reference value :  4.50270e-06
 Reference value :  4.50485e-06
 Reference value :  4.50674e-06
 Reference value :  4.50843e-06
 Reference value :  4.51056e-06
 Reference value :  4.51278e-06
 Reference value :  4.52080e-06
 Reference value :  4.61661e-06
 Reference value :  4.75011e-06
 Reference value :  4.75020e-06
 Reference value :  4.75026e-06
 Reference value :  4.75045e-06
 Reference value :  4.75105e-06
 Reference value :  4.75152e-06
 Reference value :  4.75202e-06
 Reference value :  4.75325e-06
 Reference value :  4.75464e-06
 Reference value :  4.75694e-06
 Reference value :  4.75994e-06
 Reference value :  4.76544e-06
 Reference value :  4.79847e-06
 Reference value :  5.00003e-06
 Reference value :  5.00016e-06
 Reference value :  5.00052e-06
 Reference value :  5.00130e-06
 Reference value :  5.00224e-06
 Reference value :  5.00403e-06
 Reference value :  5.00457e-06
 Reference value :  5.00583e-06
 Reference value :  5.00712e-06
 Reference value :  5.00901e-06
 Reference value :  5.01146e-06
 Reference value :  5.01378e-06
 Reference value :  5.01733e-06
 Reference value :  5.02110e-06
 Reference value :  5.03041e-06
 Reference value :  5.03769e-06
 Reference value :  5.04529e-06
 Reference value :  5.07693e-06
 Reference value :  5.19222e-06
 Reference value :  5.25010e-06
 Reference value :  5.25017e-06
 Reference value :  5.25022e-06
 Reference value :  5.25045e-06
 Reference value :  5.25105e-06
 Reference value :  5.25203e-06
 Reference value :  5.25328e-06
 Reference value :  5.25403e-06
 Reference value :  5.25538e-06
 Reference value :  5.25812e-06
 Reference value :  5.27291e-06
 Reference value :  5.38802e-06
 Reference value :  5.50001e-06
 Reference value :  5.50010e-06
 Reference value :  5.50022e-06
 Reference value :  5.50086e-06
 Reference value :  5.50177e-06
 Reference value :  5.50270e-06
 Reference value :  5.50485e-06
 Reference value :  5.50674e-06
 Reference value :  5.50754e-06
 Reference value :  5.50947e-06
 Reference value :  5.51158e-06
 Reference value :  5.51278e-06
 Reference value :  5.52079e-06
 Reference value :  5.54218e-06
 Reference value :  5.71403e-06
 Reference value :  5.75011e-06
 Reference value :  5.75017e-06
 Reference value :  5.75021e-06
 Reference value :  5.75032e-06
 Reference value :  5.75105e-06
 Reference value :  5.75202e-06
 Reference value :  5.75403e-06
 Reference value :  5.75532e-06
 Reference value :  5.75694e-06
 Reference value :  5.75994e-06
 Reference value :  5.76544e-06
 Reference value :  5.79849e-06
 Reference value :  6.00000e-06
 Reference value :  6.00007e-06
 Reference value :  6.00012e-06
 Reference value :  6.00035e-06
 Reference value :  6.00130e-06
 Reference value :  6.00224e-06
 Reference value :  6.00403e-06
 Reference value :  6.00521e-06
 Reference value :  6.00644e-06
 Reference value :  6.01047e-06
 Reference value :  6.01256e-06
 Reference value :  6.01633e-06
 Reference value :  6.01878e-06
 Reference value :  6.02301e-06
 Reference value :  6.02635e-06
 Reference value :  6.03100e-06
 Reference value :  6.04826e-06
 Reference value :  6.13516e-06
 Reference value :  6.25011e-06
 Reference value :  6.25020e-06
 Reference value :  6.25032e-06
 Reference value :  6.25105e-06
 Reference value :  6.25203e-06
 Reference value :  6.25406e-06
 Reference value :  6.25535e-06
 Reference value :  6.25690e-06
 Reference value :  6.25955e-06
 Reference value :  6.28145e-06
 Reference value :  6.48356e-06
 Reference value :  6.50007e-06
 Reference value :  6.50012e-06
 Reference value :  6.50035e-06
 Reference value :  6.50130e-06
 Reference value :  6.50224e-06
 Reference value :  6.50399e-06
 Reference value :  6.50532e-06
 Reference value :  6.50730e-06
 Reference value :  6.50925e-06
 Reference value :  6.51123e-06
 Reference value :  6.51617e-06
 Reference value :  6.58911e-06
 Reference value :  6.75011e-06
 Reference value :  6.75020e-06
 Reference value :  6.75026e-06
 Reference value :  6.75070e-06
 Reference value :  6.75203e-06
 Reference value :  6.75328e-06
 Reference value :  6.75468e-06
 Reference value :  6.75608e-06
 Reference value :  6.75968e-06
 Reference value :  6.77153e-06
 Reference value :  6.83120e-06
 Reference value :  7.00000e-06
 Reference value :  7.00007e-06
 Reference value :  7.00012e-06
 Reference value :  7.00052e-06
 Reference value :  7.00130e-06
 Reference value :  7.00224e-06
 Reference value :  7.00403e-06
 Reference value :  7.00458e-06
 Reference value :  7.00582e-06
 Reference value :  7.00711e-06
 Reference value :  7.01062e-06
 Reference value :  7.01402e-06
 Reference value :  7.01669e-06
 Reference value :  7.01907e-06
 Reference value :  7.02532e-06
 Reference value :  7.03742e-06
 Reference value :  7.04856e-06
 Reference value :  7.07266e-06
 Reference value :  7.14148e-06
 Reference value :  7.25017e-06
 Reference value :  7.25032e-06
 Reference value :  7.25105e-06
 Reference value :  7.25201e-06
 Reference value :  7.25400e-06
 Reference value :  7.25598e-06
 Reference value :  7.25957e-06
 Reference value :  7.27102e-06
 Reference value :  7.38633e-06
 Reference value :  7.50001e-06
 Reference value :  7.50010e-06
 Reference value :  7.50016e-06
 Reference value :  7.50052e-06
 Reference value :  7.50130e-06
 Reference value :  7.50221e-06
 Reference value :  7.50405e-06
 Reference value :  7.50560e-06
 Reference value :  7.50753e-06
 Reference value :  7.50947e-06
 Reference value :  7.51157e-06
 Reference value :  7.51411e-06
 Reference value :  7.52829e-06
 Reference value :  7.71233e-06
 Reference value :  7.75013e-06
 Reference value :  7.75026e-06
 Reference value :  7.75070e-06
 Reference value :  7.75152e-06
 Reference value :  7.75325e-06
 Reference value :  7.75464e-06
 Reference value :  7.75694e-06
 Reference value :  7.75994e-06
 Reference value :  7.76903e-06
 Reference value :  7.85834e-06
 Reference value :  8.00010e-06
 Reference value :  8.00035e-06
 Reference value :  8.00130e-06
 Reference value :  8.00224e-06
 Reference value :  8.00403e-06
 Reference value :  8.00521e-06
 Reference value :  8.00644e-06
 Reference value :  8.00902e-06
 Reference value :  8.01082e-06
 Reference value :  8.01281e-06
 Reference value :  8.01582e-06
 Reference value :  8.01940e-06
 Reference value :  8.02477e-06
 Reference value :  8.06329e-06
 Reference value :  8.20416e-06
 Reference value :  8.25017e-06
 Reference value :  8.25026e-06
 Reference value :  8.25070e-06
 Reference value :  8.25203e-06
 Reference value :  8.25425e-06
 Reference value :  8.25726e-06
 Reference value :  8.26294e-06
 Reference value :  8.28078e-06
 Reference value :  8.43672e-06
 Reference value :  8.50003e-06
 Reference value :  8.50011e-06
 Reference value :  8.50035e-06
 Reference value :  8.50151e-06
 Reference value :  8.50256e-06
 Reference value :  8.50374e-06
 Reference value :  8.50513e-06
 Reference value :  8.50569e-06
 Reference value :  8.50704e-06
 Reference value :  8.51120e-06
 Reference value :  8.52725e-06
 Reference value :  8.53293e-06
 Reference value :  8.53684e-06
 Reference value :  8.54104e-06
 Reference value :  8.54698e-06
 Reference value :  8.55229e-06
 Reference value :  8.56489e-06
 Reference value :  8.59314e-06
 Reference value :  8.66294e-06
 Reference value :  8.75011e-06
 Reference value :  8.75020e-06
 Reference value :  8.75026e-06
 Reference value :  8.75070e-06
 Reference value :  8.75201e-06
 Reference value :  8.75326e-06
 Reference value :  8.75404e-06
 Reference value :  8.75464e-06
 Reference value :  8.75597e-06
 Reference value :  8.75771e-06
 Reference value :  8.77022e-06
 Reference value :  8.88581e-06
No. of Data Rows : 1358
ngspice-44 done
