
Note: Compatibility modes selected: hs a


Circuit: ** sch_path: /home/samantha/cace/sar-adc-using-sky130-pdk/runs/run_2025-08-29_13-37-29/parameters/power/run_06/power_consumption.sch

option SCALE: Scale is set to 1e-06 for instance and model parameters
option SCALE: Scale is set to 1e-06 for instance and model parameters
option SCALE: Scale is set to 1e-06 for instance and model parameters
option SCALE: Scale is set to 1e-06 for instance and model parameters
Doing analysis at TEMP = 27.000000 and TNOM = 27.000000

Using KLU as Direct Linear Solver
Operating point simulation skipped by 'uic',
  now using transient initial conditions.
 Reference value :  5.00000e-12
 Reference value :  5.14000e-12
 Reference value :  5.42000e-12
 Reference value :  5.98000e-12
 Reference value :  8.69268e-12
 Reference value :  2.23493e-11
 Reference value :  5.97167e-11
 Reference value :  1.99417e-10
 Reference value :  5.00000e-10
 Reference value :  5.15249e-10
 Reference value :  5.45748e-10
 Reference value :  7.28739e-10
 Reference value :  9.72728e-10
 Reference value :  1.27093e-09
 Reference value :  1.62961e-09
 Reference value :  2.15647e-09
 Reference value :  2.69777e-09
 Reference value :  4.39651e-09
 Reference value :  6.80564e-09
 Reference value :  7.84699e-09
 Reference value :  8.87796e-09
 Reference value :  9.89089e-09
 Reference value :  1.08638e-08
 Reference value :  1.22999e-08
 Reference value :  1.38160e-08
 Reference value :  1.53744e-08
 Reference value :  1.65646e-08
 Reference value :  1.87429e-08
 Reference value :  2.18255e-08
 Reference value :  2.76711e-08
 Reference value :  4.18305e-08
 Reference value :  5.67728e-08
 Reference value :  7.05756e-08
 Reference value :  1.19942e-07
 Reference value :  1.30154e-07
 Reference value :  1.43281e-07
 Reference value :  1.57197e-07
 Reference value :  1.72510e-07
 Reference value :  2.14817e-07
 Reference value :  2.90607e-07
 Reference value :  5.00000e-07
 Reference value :  5.59357e-07
 Reference value :  7.18237e-07
 Reference value :  1.00050e-06
 Reference value :  1.00065e-06
 Reference value :  1.00100e-06
 Reference value :  1.00103e-06
 Reference value :  1.00109e-06
 Reference value :  1.00121e-06
 Reference value :  1.00139e-06
 Reference value :  1.00197e-06
 Reference value :  1.00242e-06
 Reference value :  1.00344e-06
 Reference value :  1.00415e-06
 Reference value :  1.00467e-06
 Reference value :  1.00526e-06
 Reference value :  1.00670e-06
 Reference value :  1.00878e-06
 Reference value :  1.01022e-06
 Reference value :  1.01599e-06
 Reference value :  1.03293e-06
 Reference value :  1.08315e-06
 Reference value :  1.13738e-06
 Reference value :  1.46017e-06
 Reference value :  2.00005e-06
 Reference value :  2.00035e-06
 Reference value :  2.00053e-06
 Reference value :  2.00074e-06
 Reference value :  2.00139e-06
 Reference value :  2.00217e-06
 Reference value :  2.00312e-06
 Reference value :  2.00378e-06
 Reference value :  2.00512e-06
 Reference value :  2.00618e-06
 Reference value :  2.00877e-06
 Reference value :  2.00996e-06
 Reference value :  2.01121e-06
 Reference value :  2.01272e-06
 Reference value :  2.01439e-06
 Reference value :  2.01794e-06
 Reference value :  2.02363e-06
 Reference value :  2.02944e-06
 Reference value :  2.05356e-06
 Reference value :  2.14678e-06
 Reference value :  2.51317e-06
 Reference value :  3.00055e-06
 Reference value :  3.00085e-06
 Reference value :  3.00100e-06
 Reference value :  3.00110e-06
 Reference value :  3.00151e-06
 Reference value :  3.00178e-06
 Reference value :  3.00219e-06
 Reference value :  3.00265e-06
 Reference value :  3.00313e-06
 Reference value :  3.00378e-06
 Reference value :  3.00430e-06
 Reference value :  3.00492e-06
 Reference value :  3.00548e-06
 Reference value :  3.00608e-06
 Reference value :  3.00684e-06
 Reference value :  3.00765e-06
 Reference value :  3.00846e-06
 Reference value :  3.00946e-06
 Reference value :  3.01223e-06
 Reference value :  3.01737e-06
 Reference value :  3.03026e-06
 Reference value :  3.06273e-06
 Reference value :  3.09396e-06
 Reference value :  3.15234e-06
 Reference value :  3.50262e-06
 Reference value :  4.00000e-06
 Reference value :  4.00005e-06
 Reference value :  4.00015e-06
 Reference value :  4.00035e-06
 Reference value :  4.00053e-06
 Reference value :  4.00074e-06
 Reference value :  4.00139e-06
 Reference value :  4.00221e-06
 Reference value :  4.00321e-06
 Reference value :  4.00376e-06
 Reference value :  4.00429e-06
 Reference value :  4.00488e-06
 Reference value :  4.00544e-06
 Reference value :  4.00613e-06
 Reference value :  4.00760e-06
 Reference value :  4.00969e-06
 Reference value :  4.01077e-06
 Reference value :  4.01185e-06
 Reference value :  4.01298e-06
 Reference value :  4.01384e-06
 Reference value :  4.01467e-06
 Reference value :  4.01563e-06
 Reference value :  4.01664e-06
 Reference value :  4.01761e-06
 Reference value :  4.01878e-06
 Reference value :  4.02000e-06
 Reference value :  4.02183e-06
 Reference value :  4.03679e-06
 Reference value :  4.07881e-06
 Reference value :  4.19474e-06
 Reference value :  4.27376e-06
 Reference value :  4.37606e-06
 Reference value :  4.61023e-06
 Reference value :  5.00055e-06
 Reference value :  5.00065e-06
 Reference value :  5.00100e-06
 Reference value :  5.00110e-06
 Reference value :  5.00151e-06
 Reference value :  5.00219e-06
 Reference value :  5.00314e-06
 Reference value :  5.00381e-06
 Reference value :  5.00433e-06
 Reference value :  5.00548e-06
 Reference value :  5.00607e-06
 Reference value :  5.00802e-06
 Reference value :  5.01186e-06
 Reference value :  5.03556e-06
 Reference value :  5.22489e-06
 Reference value :  5.87402e-06
 Reference value :  6.00005e-06
 Reference value :  6.00035e-06
 Reference value :  6.00050e-06
 Reference value :  6.00060e-06
 Reference value :  6.00102e-06
 Reference value :  6.00139e-06
 Reference value :  6.00217e-06
 Reference value :  6.00261e-06
 Reference value :  6.00312e-06
 Reference value :  6.00442e-06
 Reference value :  6.00506e-06
 Reference value :  6.00614e-06
 Reference value :  6.00693e-06
 Reference value :  6.00781e-06
 Reference value :  6.00867e-06
 Reference value :  6.00967e-06
 Reference value :  6.01081e-06
 Reference value :  6.01432e-06
 Reference value :  6.02718e-06
 Reference value :  6.07605e-06
 Reference value :  6.26184e-06
 Reference value :  6.50259e-06
 Reference value :  6.98409e-06
 Reference value :  7.00055e-06
 Reference value :  7.00065e-06
 Reference value :  7.00100e-06
 Reference value :  7.00103e-06
 Reference value :  7.00110e-06
 Reference value :  7.00151e-06
 Reference value :  7.00219e-06
 Reference value :  7.00265e-06
 Reference value :  7.00379e-06
 Reference value :  7.00431e-06
 Reference value :  7.00547e-06
 Reference value :  7.00606e-06
 Reference value :  7.00681e-06
 Reference value :  7.00842e-06
 Reference value :  7.00945e-06
 Reference value :  7.01220e-06
 Reference value :  7.01425e-06
 Reference value :  7.02246e-06
 Reference value :  7.04198e-06
 Reference value :  7.09026e-06
 Reference value :  7.24330e-06
 Reference value :  7.44734e-06
 Reference value :  8.00000e-06
 Reference value :  8.00015e-06
 Reference value :  8.00053e-06
 Reference value :  8.00074e-06
 Reference value :  8.00139e-06
 Reference value :  8.00221e-06
 Reference value :  8.00267e-06
 Reference value :  8.00321e-06
 Reference value :  8.00429e-06
 Reference value :  8.00544e-06
 Reference value :  8.00613e-06
 Reference value :  8.00760e-06
 Reference value :  8.00969e-06
 Reference value :  8.01077e-06
 Reference value :  8.01185e-06
 Reference value :  8.01299e-06
 Reference value :  8.01384e-06
 Reference value :  8.01467e-06
 Reference value :  8.01563e-06
 Reference value :  8.01663e-06
 Reference value :  8.01761e-06
 Reference value :  8.01878e-06
 Reference value :  8.02001e-06
 Reference value :  8.02183e-06
 Reference value :  8.02397e-06
 Reference value :  8.02824e-06
 Reference value :  8.03678e-06
 Reference value :  8.05058e-06
 Reference value :  8.07571e-06
 Reference value :  8.12317e-06
 Reference value :  8.14257e-06
 Reference value :  8.15124e-06
 Reference value :  8.16030e-06
 Reference value :  8.17917e-06
 Reference value :  8.18916e-06
 Reference value :  8.22219e-06
 Reference value :  8.31307e-06
 Reference value :  8.46737e-06
 Reference value :  8.57118e-06
 Reference value :  9.00050e-06
 Reference value :  9.00055e-06
 Reference value :  9.00085e-06
 Reference value :  9.00103e-06
 Reference value :  9.00110e-06
 Reference value :  9.00151e-06
 Reference value :  9.00178e-06
 Reference value :  9.00219e-06
 Reference value :  9.00314e-06
 Reference value :  9.00381e-06
 Reference value :  9.00434e-06
 Reference value :  9.00555e-06
 Reference value :  9.00710e-06
 Reference value :  9.00807e-06
 Reference value :  9.01199e-06
 Reference value :  9.02247e-06
 Reference value :  9.06437e-06
 Reference value :  9.23201e-06
 Reference value :  9.90253e-06
 Reference value :  1.00000e-05
 Reference value :  1.00003e-05
 Reference value :  1.00005e-05
 Reference value :  1.00007e-05
 Reference value :  1.00010e-05
 Reference value :  1.00014e-05
 Reference value :  1.00018e-05
 Reference value :  1.00022e-05
 Reference value :  1.00027e-05
 Reference value :  1.00032e-05
 Reference value :  1.00044e-05
 Reference value :  1.00060e-05
 Reference value :  1.00068e-05
 Reference value :  1.00087e-05
 Reference value :  1.00109e-05
 Reference value :  1.00146e-05
 Reference value :  1.00365e-05
 Reference value :  1.00999e-05
 Reference value :  1.03358e-05
 Reference value :  1.06502e-05
 Reference value :  1.10005e-05
 Reference value :  1.10005e-05
 Reference value :  1.10008e-05
 Reference value :  1.10010e-05
 Reference value :  1.10010e-05
 Reference value :  1.10011e-05
 Reference value :  1.10015e-05
 Reference value :  1.10018e-05
 Reference value :  1.10022e-05
 Reference value :  1.10031e-05
 Reference value :  1.10038e-05
 Reference value :  1.10043e-05
 Reference value :  1.10049e-05
 Reference value :  1.10055e-05
 Reference value :  1.10068e-05
 Reference value :  1.10092e-05
 Reference value :  1.10143e-05
 Reference value :  1.10296e-05
 Reference value :  1.10905e-05
 Reference value :  1.16593e-05
 Reference value :  1.20000e-05
 Reference value :  1.20003e-05
 Reference value :  1.20005e-05
 Reference value :  1.20007e-05
 Reference value :  1.20010e-05
 Reference value :  1.20014e-05
 Reference value :  1.20018e-05
 Reference value :  1.20022e-05
 Reference value :  1.20027e-05
 Reference value :  1.20032e-05
 Reference value :  1.20043e-05
 Reference value :  1.20048e-05
 Reference value :  1.20054e-05
 Reference value :  1.20060e-05
 Reference value :  1.20074e-05
 Reference value :  1.20100e-05
 Reference value :  1.20116e-05
 Reference value :  1.20129e-05
 Reference value :  1.20140e-05
 Reference value :  1.20151e-05
 Reference value :  1.20162e-05
 Reference value :  1.20172e-05
 Reference value :  1.20183e-05
 Reference value :  1.20195e-05
 Reference value :  1.20210e-05
 Reference value :  1.20257e-05
 Reference value :  1.20307e-05
 Reference value :  1.20471e-05
 Reference value :  1.20642e-05
 Reference value :  1.20705e-05
 Reference value :  1.20827e-05
 Reference value :  1.20892e-05
 Reference value :  1.20961e-05
 Reference value :  1.21127e-05
 Reference value :  1.21461e-05
 Reference value :  1.22246e-05
 Reference value :  1.22971e-05
 Reference value :  1.26252e-05
 Reference value :  1.30006e-05
 Reference value :  1.30009e-05
 Reference value :  1.30010e-05
 Reference value :  1.30010e-05
 Reference value :  1.30012e-05
 Reference value :  1.30015e-05
 Reference value :  1.30022e-05
 Reference value :  1.30027e-05
 Reference value :  1.30031e-05
 Reference value :  1.30038e-05
 Reference value :  1.30043e-05
 Reference value :  1.30054e-05
 Reference value :  1.30060e-05
 Reference value :  1.30069e-05
 Reference value :  1.30079e-05
 Reference value :  1.30116e-05
 Reference value :  1.30211e-05
 Reference value :  1.30586e-05
 Reference value :  1.32087e-05
 Reference value :  1.38092e-05
 Reference value :  1.40000e-05
 Reference value :  1.40004e-05
 Reference value :  1.40005e-05
 Reference value :  1.40006e-05
 Reference value :  1.40010e-05
 Reference value :  1.40014e-05
 Reference value :  1.40022e-05
 Reference value :  1.40026e-05
 Reference value :  1.40038e-05
 Reference value :  1.40044e-05
 Reference value :  1.40051e-05
 Reference value :  1.40061e-05
 Reference value :  1.40069e-05
 Reference value :  1.40078e-05
 Reference value :  1.40087e-05
 Reference value :  1.40097e-05
 Reference value :  1.40108e-05
 Reference value :  1.40143e-05
 Reference value :  1.40272e-05
 Reference value :  1.41381e-05
 Reference value :  1.45025e-05
 Reference value :  1.50005e-05
 Reference value :  1.50007e-05
 Reference value :  1.50009e-05
 Reference value :  1.50010e-05
 Reference value :  1.50010e-05
 Reference value :  1.50011e-05
 Reference value :  1.50015e-05
 Reference value :  1.50018e-05
 Reference value :  1.50022e-05
 Reference value :  1.50027e-05
 Reference value :  1.50031e-05
 Reference value :  1.50038e-05
 Reference value :  1.50043e-05
 Reference value :  1.50049e-05
 Reference value :  1.50055e-05
 Reference value :  1.50068e-05
 Reference value :  1.50084e-05
 Reference value :  1.50094e-05
 Reference value :  1.50122e-05
 Reference value :  1.50142e-05
 Reference value :  1.50173e-05
 Reference value :  1.50298e-05
 Reference value :  1.50420e-05
 Reference value :  1.50903e-05
 Reference value :  1.51413e-05
 Reference value :  1.54476e-05
 Reference value :  1.60000e-05
 Reference value :  1.60001e-05
 Reference value :  1.60004e-05
 Reference value :  1.60005e-05
 Reference value :  1.60006e-05
 Reference value :  1.60010e-05
 Reference value :  1.60014e-05
 Reference value :  1.60022e-05
 Reference value :  1.60032e-05
 Reference value :  1.60038e-05
 Reference value :  1.60043e-05
 Reference value :  1.60054e-05
 Reference value :  1.60061e-05
 Reference value :  1.60076e-05
 Reference value :  1.60097e-05
 Reference value :  1.60108e-05
 Reference value :  1.60118e-05
 Reference value :  1.60130e-05
 Reference value :  1.60139e-05
 Reference value :  1.60157e-05
 Reference value :  1.60167e-05
 Reference value :  1.60189e-05
 Reference value :  1.60219e-05
 Reference value :  1.60285e-05
 Reference value :  1.60458e-05
 Reference value :  1.60533e-05
 Reference value :  1.60567e-05
 Reference value :  1.60641e-05
 Reference value :  1.60766e-05
 Reference value :  1.61016e-05
 Reference value :  1.61357e-05
 Reference value :  1.61948e-05
 Reference value :  1.63594e-05
 Reference value :  1.68594e-05
 Reference value :  1.70006e-05
 Reference value :  1.70009e-05
 Reference value :  1.70010e-05
 Reference value :  1.70011e-05
 Reference value :  1.70014e-05
 Reference value :  1.70021e-05
 Reference value :  1.70026e-05
 Reference value :  1.70038e-05
 Reference value :  1.70045e-05
 Reference value :  1.70050e-05
 Reference value :  1.70057e-05
 Reference value :  1.70062e-05
 Reference value :  1.70079e-05
 Reference value :  1.70117e-05
 Reference value :  1.70210e-05
 Reference value :  1.70554e-05
 Reference value :  1.71909e-05
 Reference value :  1.73716e-05
 Reference value :  1.77329e-05
 Reference value :  1.80001e-05
 Reference value :  1.80004e-05
 Reference value :  1.80005e-05
 Reference value :  1.80007e-05
 Reference value :  1.80015e-05
 Reference value :  1.80025e-05
 Reference value :  1.80035e-05
 Reference value :  1.80047e-05
 Reference value :  1.80062e-05
 Reference value :  1.80068e-05
 Reference value :  1.80086e-05
 Reference value :  1.80104e-05
 Reference value :  1.80115e-05
 Reference value :  1.80151e-05
 Reference value :  1.80419e-05
 Reference value :  1.81251e-05
 Reference value :  1.82361e-05
 Reference value :  1.89020e-05
 Reference value :  1.90006e-05
 Reference value :  1.90009e-05
 Reference value :  1.90010e-05
 Reference value :  1.90012e-05
 Reference value :  1.90014e-05
 Reference value :  1.90017e-05
 Reference value :  1.90026e-05
 Reference value :  1.90031e-05
 Reference value :  1.90045e-05
 Reference value :  1.90050e-05
 Reference value :  1.90056e-05
 Reference value :  1.90071e-05
 Reference value :  1.90079e-05
 Reference value :  1.90118e-05
 Reference value :  1.90214e-05
 Reference value :  1.90568e-05
 Reference value :  1.91925e-05
 Reference value :  2.00000e-05
 Reference value :  2.00002e-05
 Reference value :  2.00005e-05
 Reference value :  2.00006e-05
 Reference value :  2.00010e-05
 Reference value :  2.00015e-05
 Reference value :  2.00025e-05
 Reference value :  2.00035e-05
 Reference value :  2.00046e-05
 Reference value :  2.00052e-05
 Reference value :  2.00056e-05
 Reference value :  2.00069e-05
 Reference value :  2.00090e-05
 Reference value :  2.00106e-05
 Reference value :  2.00120e-05
 Reference value :  2.00135e-05
 Reference value :  2.00146e-05
 Reference value :  2.00155e-05
 Reference value :  2.00166e-05
 Reference value :  2.00189e-05
 Reference value :  2.00222e-05
 Reference value :  2.00297e-05
 Reference value :  2.00489e-05
 Reference value :  2.00589e-05
 Reference value :  2.00672e-05
 Reference value :  2.00761e-05
 Reference value :  2.00831e-05
 Reference value :  2.00899e-05
 Reference value :  2.00962e-05
 Reference value :  2.01180e-05
 Reference value :  2.01888e-05
 Reference value :  2.03697e-05
 Reference value :  2.10005e-05
 Reference value :  2.10006e-05
 Reference value :  2.10010e-05
 Reference value :  2.10011e-05
 Reference value :  2.10014e-05
 Reference value :  2.10021e-05
 Reference value :  2.10031e-05
 Reference value :  2.10045e-05
 Reference value :  2.10050e-05
 Reference value :  2.10062e-05
 Reference value :  2.10071e-05
 Reference value :  2.10096e-05
 Reference value :  2.10153e-05
 Reference value :  2.10577e-05
 Reference value :  2.11989e-05
 Reference value :  2.17636e-05
 Reference value :  2.20001e-05
 Reference value :  2.20004e-05
 Reference value :  2.20005e-05
 Reference value :  2.20007e-05
 Reference value :  2.20015e-05
 Reference value :  2.20025e-05
 Reference value :  2.20035e-05
 Reference value :  2.20048e-05
 Reference value :  2.20056e-05
 Reference value :  2.20065e-05
 Reference value :  2.20071e-05
 Reference value :  2.20088e-05
 Reference value :  2.20107e-05
 Reference value :  2.20119e-05
 Reference value :  2.20187e-05
 Reference value :  2.20489e-05
 Reference value :  2.25093e-05
 Reference value :  2.30005e-05
 Reference value :  2.30010e-05
 Reference value :  2.30011e-05
 Reference value :  2.30014e-05
 Reference value :  2.30021e-05
 Reference value :  2.30026e-05
 Reference value :  2.30037e-05
 Reference value :  2.30044e-05
 Reference value :  2.30050e-05
 Reference value :  2.30063e-05
 Reference value :  2.30070e-05
 Reference value :  2.30087e-05
 Reference value :  2.30108e-05
 Reference value :  2.30146e-05
 Reference value :  2.30304e-05
 Reference value :  2.30616e-05
 Reference value :  2.31389e-05
 Reference value :  2.34074e-05
 Reference value :  2.40001e-05
 Reference value :  2.40004e-05
 Reference value :  2.40006e-05
 Reference value :  2.40015e-05
 Reference value :  2.40025e-05
 Reference value :  2.40035e-05
 Reference value :  2.40046e-05
 Reference value :  2.40052e-05
 Reference value :  2.40056e-05
 Reference value :  2.40076e-05
 Reference value :  2.40098e-05
 Reference value :  2.40107e-05
 Reference value :  2.40117e-05
 Reference value :  2.40128e-05
 Reference value :  2.40146e-05
 Reference value :  2.40156e-05
 Reference value :  2.40177e-05
 Reference value :  2.40203e-05
 Reference value :  2.40245e-05
 Reference value :  2.40336e-05
 Reference value :  2.40450e-05
 Reference value :  2.40544e-05
 Reference value :  2.40641e-05
 Reference value :  2.40714e-05
 Reference value :  2.40883e-05
 Reference value :  2.40984e-05
 Reference value :  2.41595e-05
 Reference value :  2.43020e-05
 Reference value :  2.46895e-05
 Reference value :  2.50005e-05
 Reference value :  2.50006e-05
 Reference value :  2.50008e-05
 Reference value :  2.50010e-05
 Reference value :  2.50012e-05
 Reference value :  2.50014e-05
 Reference value :  2.50021e-05
 Reference value :  2.50031e-05
 Reference value :  2.50045e-05
 Reference value :  2.50050e-05
 Reference value :  2.50063e-05
 Reference value :  2.50070e-05
 Reference value :  2.50079e-05
 Reference value :  2.50151e-05
 Reference value :  2.50332e-05
 Reference value :  2.51966e-05
 Reference value :  2.57569e-05
 Reference value :  2.60001e-05
 Reference value :  2.60004e-05
 Reference value :  2.60005e-05
 Reference value :  2.60007e-05
 Reference value :  2.60015e-05
 Reference value :  2.60025e-05
 Reference value :  2.60030e-05
 Reference value :  2.60035e-05
 Reference value :  2.60047e-05
 Reference value :  2.60062e-05
 Reference value :  2.60068e-05
 Reference value :  2.60086e-05
 Reference value :  2.60104e-05
 Reference value :  2.60115e-05
 Reference value :  2.60151e-05
 Reference value :  2.60267e-05
 Reference value :  2.60689e-05
 Reference value :  2.62325e-05
 Reference value :  2.68870e-05
 Reference value :  2.70006e-05
 Reference value :  2.70009e-05
 Reference value :  2.70010e-05
 Reference value :  2.70012e-05
 Reference value :  2.70014e-05
 Reference value :  2.70017e-05
 Reference value :  2.70026e-05
 Reference value :  2.70038e-05
 Reference value :  2.70050e-05
 Reference value :  2.70063e-05
 Reference value :  2.70071e-05
 Reference value :  2.70079e-05
 Reference value :  2.70152e-05
 Reference value :  2.70336e-05
 Reference value :  2.71019e-05
 Reference value :  2.71924e-05
 Reference value :  2.77354e-05
 Reference value :  2.80000e-05
 Reference value :  2.80004e-05
 Reference value :  2.80005e-05
 Reference value :  2.80007e-05
 Reference value :  2.80015e-05
 Reference value :  2.80025e-05
 Reference value :  2.80035e-05
 Reference value :  2.80046e-05
 Reference value :  2.80056e-05
 Reference value :  2.80069e-05
 Reference value :  2.80090e-05
 Reference value :  2.80106e-05
 Reference value :  2.80120e-05
 Reference value :  2.80135e-05
 Reference value :  2.80146e-05
 Reference value :  2.80155e-05
 Reference value :  2.80165e-05
 Reference value :  2.80176e-05
 Reference value :  2.80189e-05
 Reference value :  2.80222e-05
 Reference value :  2.80294e-05
 Reference value :  2.80479e-05
 Reference value :  2.80930e-05
 Reference value :  2.81255e-05
 Reference value :  2.81586e-05
 Reference value :  2.81810e-05
 Reference value :  2.82019e-05
 Reference value :  2.82687e-05
 Reference value :  2.83473e-05
 Reference value :  2.86107e-05
 Reference value :  2.90005e-05
 Reference value :  2.90007e-05
 Reference value :  2.90009e-05
 Reference value :  2.90010e-05
 Reference value :  2.90012e-05
 Reference value :  2.90014e-05
 Reference value :  2.90021e-05
 Reference value :  2.90026e-05
 Reference value :  2.90038e-05
 Reference value :  2.90050e-05
 Reference value :  2.90062e-05
 Reference value :  2.90071e-05
 Reference value :  2.90096e-05
 Reference value :  2.90153e-05
 Reference value :  2.90342e-05
 Reference value :  2.91038e-05
 Reference value :  2.93825e-05
 Reference value :  3.00001e-05
 Reference value :  3.00004e-05
 Reference value :  3.00005e-05
 Reference value :  3.00007e-05
 Reference value :  3.00015e-05
 Reference value :  3.00025e-05
 Reference value :  3.00035e-05
 Reference value :  3.00042e-05
 Reference value :  3.00048e-05
 Reference value :  3.00056e-05
 Reference value :  3.00065e-05
 Reference value :  3.00071e-05
 Reference value :  3.00088e-05
 Reference value :  3.00107e-05
 Reference value :  3.00118e-05
 Reference value :  3.00154e-05
 Reference value :  3.00242e-05
 Reference value :  3.00487e-05
 Reference value :  3.01402e-05
 Reference value :  3.02621e-05
 Reference value :  3.09936e-05
 Reference value :  3.10005e-05
 Reference value :  3.10008e-05
 Reference value :  3.10010e-05
 Reference value :  3.10011e-05
 Reference value :  3.10014e-05
 Reference value :  3.10021e-05
 Reference value :  3.10026e-05
 Reference value :  3.10038e-05
 Reference value :  3.10045e-05
 Reference value :  3.10050e-05
 Reference value :  3.10063e-05
 Reference value :  3.10071e-05
 Reference value :  3.10088e-05
 Reference value :  3.10109e-05
 Reference value :  3.10147e-05
 Reference value :  3.10233e-05
 Reference value :  3.10437e-05
 Reference value :  3.10941e-05
 Reference value :  3.11461e-05
 Reference value :  3.18714e-05
 Reference value :  3.20000e-05
 Reference value :  3.20003e-05
 Reference value :  3.20005e-05
 Reference value :  3.20007e-05
 Reference value :  3.20015e-05
 Reference value :  3.20020e-05
 Reference value :  3.20025e-05
 Reference value :  3.20035e-05
 Reference value :  3.20046e-05
 Reference value :  3.20052e-05
 Reference value :  3.20056e-05
 Reference value :  3.20076e-05
 Reference value :  3.20083e-05
 Reference value :  3.20091e-05
 Reference value :  3.20098e-05
 Reference value :  3.20115e-05
 Reference value :  3.20144e-05
 Reference value :  3.20161e-05
 Reference value :  3.20176e-05
 Reference value :  3.20222e-05
 Reference value :  3.20345e-05
 Reference value :  3.20443e-05
 Reference value :  3.20532e-05
 Reference value :  3.20602e-05
 Reference value :  3.20680e-05
 Reference value :  3.20758e-05
 Reference value :  3.20841e-05
 Reference value :  3.21138e-05
 Reference value :  3.21592e-05
 Reference value :  3.23032e-05
 Reference value :  3.26813e-05
 Reference value :  3.30006e-05
 Reference value :  3.30009e-05
 Reference value :  3.30010e-05
 Reference value :  3.30012e-05
 Reference value :  3.30015e-05
 Reference value :  3.30022e-05
 Reference value :  3.30032e-05
 Reference value :  3.30039e-05
 Reference value :  3.30056e-05
 Reference value :  3.30075e-05
 Reference value :  3.30089e-05
 Reference value :  3.30134e-05
 Reference value :  3.30262e-05
 Reference value :  3.30773e-05
 Reference value :  3.32816e-05
 Reference value :  3.40000e-05
No. of Data Rows : 1282
ngspice-44 done
