
Note: Compatibility modes selected: hs a


Circuit: ** sch_path: /home/issa/cace/sar-adc-using-sky130-pdk/runs/run_2025-09-20_12-51-37/parameters/sampling_rate/run_06/sampling_rate.sch

option SCALE: Scale is set to 1e-06 for instance and model parameters
option SCALE: Scale is set to 1e-06 for instance and model parameters
option SCALE: Scale is set to 1e-06 for instance and model parameters
option SCALE: Scale is set to 1e-06 for instance and model parameters
Doing analysis at TEMP = 27.000000 and TNOM = 27.000000

Using KLU as Direct Linear Solver
Operating point simulation skipped by 'uic',
  now using transient initial conditions.
 Reference value :  1.00000e-12
 Reference value :  1.02800e-12
 Reference value :  1.19600e-12
 Reference value :  1.71075e-12
 Reference value :  4.42286e-12
 Reference value :  1.35477e-11
 Reference value :  6.32078e-11
 Reference value :  1.17026e-10
 Reference value :  1.85132e-10
 Reference value :  4.57553e-10
 Reference value :  9.66200e-10
 Reference value :  1.37838e-09
 Reference value :  1.87873e-09
 Reference value :  2.47882e-09
 Reference value :  3.21561e-09
 Reference value :  4.12090e-09
 Reference value :  5.06454e-09
 Reference value :  6.03581e-09
 Reference value :  6.73835e-09
 Reference value :  8.59729e-09
 Reference value :  1.09164e-08
 Reference value :  1.19013e-08
 Reference value :  1.38246e-08
 Reference value :  1.63222e-08
 Reference value :  2.13582e-08
 Reference value :  2.93321e-08
 Reference value :  4.24357e-08
 Reference value :  8.24914e-08
 Reference value :  1.81031e-07
 Reference value :  2.22211e-07
 Reference value :  2.50110e-07
 Reference value :  2.50200e-07
 Reference value :  2.50252e-07
 Reference value :  2.50540e-07
 Reference value :  2.51467e-07
 Reference value :  2.52382e-07
 Reference value :  2.53684e-07
 Reference value :  2.54937e-07
 Reference value :  2.57366e-07
 Reference value :  2.63164e-07
 Reference value :  2.85670e-07
 Reference value :  4.05959e-07
 Reference value :  5.00030e-07
 Reference value :  5.00108e-07
 Reference value :  5.00220e-07
 Reference value :  5.00537e-07
 Reference value :  5.01189e-07
 Reference value :  5.01584e-07
 Reference value :  5.03007e-07
 Reference value :  5.04130e-07
 Reference value :  5.05654e-07
 Reference value :  5.08639e-07
 Reference value :  5.09859e-07
 Reference value :  5.12586e-07
 Reference value :  5.16084e-07
 Reference value :  5.25832e-07
 Reference value :  5.47363e-07
 Reference value :  6.92639e-07
 Reference value :  7.50130e-07
 Reference value :  7.50200e-07
 Reference value :  7.50256e-07
 Reference value :  7.50448e-07
 Reference value :  7.51576e-07
 Reference value :  7.52526e-07
 Reference value :  7.53780e-07
 Reference value :  7.54923e-07
 Reference value :  7.56264e-07
 Reference value :  7.57938e-07
 Reference value :  7.60511e-07
 Reference value :  7.68226e-07
 Reference value :  8.12158e-07
 Reference value :  1.00000e-06
 Reference value :  1.00003e-06
 Reference value :  1.00010e-06
 Reference value :  1.00012e-06
 Reference value :  1.00022e-06
 Reference value :  1.00054e-06
 Reference value :  1.00119e-06
 Reference value :  1.00163e-06
 Reference value :  1.00258e-06
 Reference value :  1.00308e-06
 Reference value :  1.00419e-06
 Reference value :  1.00519e-06
 Reference value :  1.00640e-06
 Reference value :  1.00807e-06
 Reference value :  1.01010e-06
 Reference value :  1.01198e-06
 Reference value :  1.01373e-06
 Reference value :  1.01530e-06
 Reference value :  1.01713e-06
 Reference value :  1.01812e-06
 Reference value :  1.02091e-06
 Reference value :  1.03252e-06
 Reference value :  1.09479e-06
 Reference value :  1.21710e-06
 Reference value :  1.25010e-06
 Reference value :  1.25013e-06
 Reference value :  1.25021e-06
 Reference value :  1.25032e-06
 Reference value :  1.25070e-06
 Reference value :  1.25157e-06
 Reference value :  1.25203e-06
 Reference value :  1.25252e-06
 Reference value :  1.25377e-06
 Reference value :  1.25509e-06
 Reference value :  1.25816e-06
 Reference value :  1.26630e-06
 Reference value :  1.29903e-06
 Reference value :  1.30879e-06
 Reference value :  1.31793e-06
 Reference value :  1.33679e-06
 Reference value :  1.35325e-06
 Reference value :  1.40551e-06
 Reference value :  1.50001e-06
 Reference value :  1.50007e-06
 Reference value :  1.50012e-06
 Reference value :  1.50035e-06
 Reference value :  1.50086e-06
 Reference value :  1.50163e-06
 Reference value :  1.50258e-06
 Reference value :  1.50363e-06
 Reference value :  1.50488e-06
 Reference value :  1.50630e-06
 Reference value :  1.50794e-06
 Reference value :  1.50982e-06
 Reference value :  1.51093e-06
 Reference value :  1.51901e-06
 Reference value :  1.54194e-06
 Reference value :  1.75010e-06
 Reference value :  1.75017e-06
 Reference value :  1.75022e-06
 Reference value :  1.75045e-06
 Reference value :  1.75110e-06
 Reference value :  1.75203e-06
 Reference value :  1.75325e-06
 Reference value :  1.75377e-06
 Reference value :  1.75491e-06
 Reference value :  1.75637e-06
 Reference value :  1.76131e-06
 Reference value :  1.78152e-06
 Reference value :  1.93962e-06
 Reference value :  2.00001e-06
 Reference value :  2.00010e-06
 Reference value :  2.00016e-06
 Reference value :  2.00054e-06
 Reference value :  2.00119e-06
 Reference value :  2.00209e-06
 Reference value :  2.00307e-06
 Reference value :  2.00418e-06
 Reference value :  2.00524e-06
 Reference value :  2.00649e-06
 Reference value :  2.01027e-06
 Reference value :  2.01341e-06
 Reference value :  2.01455e-06
 Reference value :  2.01650e-06
 Reference value :  2.01872e-06
 Reference value :  2.02450e-06
 Reference value :  2.04956e-06
 Reference value :  2.06317e-06
 Reference value :  2.07248e-06
 Reference value :  2.08642e-06
 Reference value :  2.09916e-06
 Reference value :  2.11408e-06
 Reference value :  2.15436e-06
 Reference value :  2.25011e-06
 Reference value :  2.25020e-06
 Reference value :  2.25026e-06
 Reference value :  2.25070e-06
 Reference value :  2.25157e-06
 Reference value :  2.25251e-06
 Reference value :  2.25375e-06
 Reference value :  2.25570e-06
 Reference value :  2.25798e-06
 Reference value :  2.26580e-06
 Reference value :  2.31241e-06
 Reference value :  2.50000e-06
 Reference value :  2.50001e-06
 Reference value :  2.50010e-06
 Reference value :  2.50016e-06
 Reference value :  2.50035e-06
 Reference value :  2.50086e-06
 Reference value :  2.50159e-06
 Reference value :  2.50251e-06
 Reference value :  2.50300e-06
 Reference value :  2.50411e-06
 Reference value :  2.50562e-06
 Reference value :  2.50625e-06
 Reference value :  2.50795e-06
 Reference value :  2.50986e-06
 Reference value :  2.51216e-06
 Reference value :  2.54162e-06
 Reference value :  2.75010e-06
 Reference value :  2.75017e-06
 Reference value :  2.75022e-06
 Reference value :  2.75045e-06
 Reference value :  2.75157e-06
 Reference value :  2.75251e-06
 Reference value :  2.75377e-06
 Reference value :  2.75490e-06
 Reference value :  2.75549e-06
 Reference value :  2.75623e-06
 Reference value :  2.75786e-06
 Reference value :  2.76045e-06
 Reference value :  2.76483e-06
 Reference value :  2.78501e-06
 Reference value :  3.00000e-06
 Reference value :  3.00007e-06
 Reference value :  3.00012e-06
 Reference value :  3.00035e-06
 Reference value :  3.00086e-06
 Reference value :  3.00163e-06
 Reference value :  3.00258e-06
 Reference value :  3.00364e-06
 Reference value :  3.00419e-06
 Reference value :  3.00519e-06
 Reference value :  3.00639e-06
 Reference value :  3.00807e-06
 Reference value :  3.01010e-06
 Reference value :  3.01197e-06
 Reference value :  3.01371e-06
 Reference value :  3.01526e-06
 Reference value :  3.01708e-06
 Reference value :  3.01905e-06
 Reference value :  3.02578e-06
 Reference value :  3.04528e-06
 Reference value :  3.07440e-06
 Reference value :  3.10190e-06
 Reference value :  3.11113e-06
 Reference value :  3.12999e-06
 Reference value :  3.16298e-06
 Reference value :  3.23584e-06
 Reference value :  3.25013e-06
 Reference value :  3.25021e-06
 Reference value :  3.25032e-06
 Reference value :  3.25109e-06
 Reference value :  3.25203e-06
 Reference value :  3.25324e-06
 Reference value :  3.25438e-06
 Reference value :  3.25567e-06
 Reference value :  3.25966e-06
 Reference value :  3.27245e-06
 Reference value :  3.36509e-06
 Reference value :  3.50001e-06
 Reference value :  3.50007e-06
 Reference value :  3.50012e-06
 Reference value :  3.50035e-06
 Reference value :  3.50086e-06
 Reference value :  3.50163e-06
 Reference value :  3.50307e-06
 Reference value :  3.50418e-06
 Reference value :  3.50568e-06
 Reference value :  3.50630e-06
 Reference value :  3.50794e-06
 Reference value :  3.50982e-06
 Reference value :  3.51209e-06
 Reference value :  3.52657e-06
 Reference value :  3.63270e-06
 Reference value :  3.75013e-06
 Reference value :  3.75021e-06
 Reference value :  3.75032e-06
 Reference value :  3.75109e-06
 Reference value :  3.75203e-06
 Reference value :  3.75324e-06
 Reference value :  3.75436e-06
 Reference value :  3.75549e-06
 Reference value :  3.75725e-06
 Reference value :  3.76451e-06
 Reference value :  3.80340e-06
 Reference value :  4.00000e-06
 Reference value :  4.00007e-06
 Reference value :  4.00012e-06
 Reference value :  4.00035e-06
 Reference value :  4.00086e-06
 Reference value :  4.00163e-06
 Reference value :  4.00258e-06
 Reference value :  4.00364e-06
 Reference value :  4.00473e-06
 Reference value :  4.00524e-06
 Reference value :  4.00732e-06
 Reference value :  4.01030e-06
 Reference value :  4.01341e-06
 Reference value :  4.01454e-06
 Reference value :  4.01647e-06
 Reference value :  4.01867e-06
 Reference value :  4.02438e-06
 Reference value :  4.03520e-06
 Reference value :  4.04602e-06
 Reference value :  4.05519e-06
 Reference value :  4.06334e-06
 Reference value :  4.07357e-06
 Reference value :  4.09273e-06
 Reference value :  4.15030e-06
 Reference value :  4.25011e-06
 Reference value :  4.25020e-06
 Reference value :  4.25026e-06
 Reference value :  4.25070e-06
 Reference value :  4.25156e-06
 Reference value :  4.25251e-06
 Reference value :  4.25375e-06
 Reference value :  4.25502e-06
 Reference value :  4.25801e-06
 Reference value :  4.26584e-06
 Reference value :  4.31244e-06
 Reference value :  4.50001e-06
 Reference value :  4.50010e-06
 Reference value :  4.50016e-06
 Reference value :  4.50054e-06
 Reference value :  4.50119e-06
 Reference value :  4.50204e-06
 Reference value :  4.50300e-06
 Reference value :  4.50411e-06
 Reference value :  4.50562e-06
 Reference value :  4.50625e-06
 Reference value :  4.50795e-06
 Reference value :  4.50986e-06
 Reference value :  4.51451e-06
 Reference value :  4.56882e-06
 Reference value :  4.75011e-06
 Reference value :  4.75020e-06
 Reference value :  4.75026e-06
 Reference value :  4.75070e-06
 Reference value :  4.75203e-06
 Reference value :  4.75324e-06
 Reference value :  4.75436e-06
 Reference value :  4.75548e-06
 Reference value :  4.75704e-06
 Reference value :  4.75889e-06
 Reference value :  4.76477e-06
 Reference value :  4.78466e-06
 Reference value :  4.90782e-06
 Reference value :  5.00003e-06
 Reference value :  5.00010e-06
 Reference value :  5.00016e-06
 Reference value :  5.00054e-06
 Reference value :  5.00119e-06
 Reference value :  5.00209e-06
 Reference value :  5.00308e-06
 Reference value :  5.00419e-06
 Reference value :  5.00519e-06
 Reference value :  5.00640e-06
 Reference value :  5.00807e-06
 Reference value :  5.01010e-06
 Reference value :  5.01197e-06
 Reference value :  5.01370e-06
 Reference value :  5.01525e-06
 Reference value :  5.01706e-06
 Reference value :  5.01801e-06
 Reference value :  5.02256e-06
 Reference value :  5.03043e-06
 Reference value :  5.03618e-06
 Reference value :  5.04571e-06
 Reference value :  5.05248e-06
 Reference value :  5.06950e-06
 Reference value :  5.18588e-06
 Reference value :  5.25013e-06
 Reference value :  5.25021e-06
 Reference value :  5.25032e-06
 Reference value :  5.25109e-06
 Reference value :  5.25202e-06
 Reference value :  5.25324e-06
 Reference value :  5.25438e-06
 Reference value :  5.25566e-06
 Reference value :  5.25965e-06
 Reference value :  5.27240e-06
 Reference value :  5.36459e-06
 Reference value :  5.50001e-06
 Reference value :  5.50010e-06
 Reference value :  5.50016e-06
 Reference value :  5.50035e-06
 Reference value :  5.50086e-06
 Reference value :  5.50163e-06
 Reference value :  5.50258e-06
 Reference value :  5.50363e-06
 Reference value :  5.50488e-06
 Reference value :  5.50630e-06
 Reference value :  5.50794e-06
 Reference value :  5.50982e-06
 Reference value :  5.51209e-06
 Reference value :  5.52653e-06
 Reference value :  5.63223e-06
 Reference value :  5.75013e-06
 Reference value :  5.75021e-06
 Reference value :  5.75032e-06
 Reference value :  5.75109e-06
 Reference value :  5.75203e-06
 Reference value :  5.75324e-06
 Reference value :  5.75377e-06
 Reference value :  5.75490e-06
 Reference value :  5.75548e-06
 Reference value :  5.75634e-06
 Reference value :  5.75899e-06
 Reference value :  5.76998e-06
 Reference value :  5.84715e-06
 Reference value :  6.00001e-06
 Reference value :  6.00010e-06
 Reference value :  6.00016e-06
 Reference value :  6.00054e-06
 Reference value :  6.00119e-06
 Reference value :  6.00210e-06
 Reference value :  6.00307e-06
 Reference value :  6.00418e-06
 Reference value :  6.00524e-06
 Reference value :  6.00732e-06
 Reference value :  6.01030e-06
 Reference value :  6.01341e-06
 Reference value :  6.01455e-06
 Reference value :  6.01654e-06
 Reference value :  6.01873e-06
 Reference value :  6.02436e-06
 Reference value :  6.03532e-06
 Reference value :  6.05095e-06
 Reference value :  6.06811e-06
 Reference value :  6.08586e-06
 Reference value :  6.12132e-06
 Reference value :  6.18837e-06
 Reference value :  6.25011e-06
 Reference value :  6.25020e-06
 Reference value :  6.25032e-06
 Reference value :  6.25109e-06
 Reference value :  6.25202e-06
 Reference value :  6.25323e-06
 Reference value :  6.25375e-06
 Reference value :  6.25502e-06
 Reference value :  6.25803e-06
 Reference value :  6.26587e-06
 Reference value :  6.31252e-06
 Reference value :  6.50000e-06
 Reference value :  6.50007e-06
 Reference value :  6.50012e-06
 Reference value :  6.50035e-06
 Reference value :  6.50086e-06
 Reference value :  6.50159e-06
 Reference value :  6.50251e-06
 Reference value :  6.50356e-06
 Reference value :  6.50490e-06
 Reference value :  6.50625e-06
 Reference value :  6.50795e-06
 Reference value :  6.50986e-06
 Reference value :  6.51451e-06
 Reference value :  6.54036e-06
 Reference value :  6.73932e-06
 Reference value :  6.75013e-06
 Reference value :  6.75021e-06
 Reference value :  6.75032e-06
 Reference value :  6.75109e-06
 Reference value :  6.75203e-06
 Reference value :  6.75324e-06
 Reference value :  6.75436e-06
 Reference value :  6.75548e-06
 Reference value :  6.75704e-06
 Reference value :  6.75889e-06
 Reference value :  6.76474e-06
 Reference value :  6.78445e-06
 Reference value :  6.90465e-06
 Reference value :  7.00003e-06
 Reference value :  7.00011e-06
 Reference value :  7.00022e-06
 Reference value :  7.00086e-06
 Reference value :  7.00163e-06
 Reference value :  7.00308e-06
 Reference value :  7.00419e-06
 Reference value :  7.00519e-06
 Reference value :  7.00711e-06
 Reference value :  7.00807e-06
 Reference value :  7.01010e-06
 Reference value :  7.01197e-06
 Reference value :  7.01369e-06
 Reference value :  7.01528e-06
 Reference value :  7.01712e-06
 Reference value :  7.01914e-06
 Reference value :  7.02268e-06
 Reference value :  7.03841e-06
 Reference value :  7.09005e-06
 Reference value :  7.11109e-06
 Reference value :  7.13802e-06
 Reference value :  7.15506e-06
 Reference value :  7.23136e-06
 Reference value :  7.25013e-06
 Reference value :  7.25021e-06
 Reference value :  7.25032e-06
 Reference value :  7.25109e-06
 Reference value :  7.25202e-06
 Reference value :  7.25323e-06
 Reference value :  7.25377e-06
 Reference value :  7.25501e-06
 Reference value :  7.25645e-06
 Reference value :  7.26251e-06
 Reference value :  7.28550e-06
 Reference value :  7.46938e-06
 Reference value :  7.50003e-06
 Reference value :  7.50011e-06
 Reference value :  7.50016e-06
 Reference value :  7.50035e-06
 Reference value :  7.50086e-06
 Reference value :  7.50163e-06
 Reference value :  7.50307e-06
 Reference value :  7.50418e-06
 Reference value :  7.50568e-06
 Reference value :  7.50630e-06
 Reference value :  7.50794e-06
 Reference value :  7.50982e-06
 Reference value :  7.51210e-06
 Reference value :  7.52650e-06
 Reference value :  7.63194e-06
 Reference value :  7.75013e-06
 Reference value :  7.75021e-06
 Reference value :  7.75032e-06
 Reference value :  7.75109e-06
 Reference value :  7.75202e-06
 Reference value :  7.75323e-06
 Reference value :  7.75436e-06
 Reference value :  7.75548e-06
 Reference value :  7.75723e-06
 Reference value :  7.76443e-06
 Reference value :  7.80269e-06
 Reference value :  8.00001e-06
 Reference value :  8.00010e-06
 Reference value :  8.00016e-06
 Reference value :  8.00054e-06
 Reference value :  8.00119e-06
 Reference value :  8.00210e-06
 Reference value :  8.00307e-06
 Reference value :  8.00420e-06
 Reference value :  8.00526e-06
 Reference value :  8.00737e-06
 Reference value :  8.00904e-06
 Reference value :  8.01117e-06
 Reference value :  8.02556e-06
 Reference value :  8.25010e-06
 Reference value :  8.25017e-06
 Reference value :  8.25022e-06
 Reference value :  8.25045e-06
 Reference value :  8.25156e-06
 Reference value :  8.25251e-06
 Reference value :  8.25392e-06
 Reference value :  8.25575e-06
 Reference value :  8.25837e-06
 Reference value :  8.26681e-06
 Reference value :  8.31910e-06
 Reference value :  8.50001e-06
 Reference value :  8.50010e-06
 Reference value :  8.50016e-06
 Reference value :  8.50035e-06
 Reference value :  8.50141e-06
 Reference value :  8.50310e-06
 Reference value :  8.50429e-06
 Reference value :  8.50530e-06
 Reference value :  8.50667e-06
 Reference value :  8.51292e-06
 Reference value :  8.52406e-06
 Reference value :  8.53358e-06
 Reference value :  8.53658e-06
 Reference value :  8.53916e-06
 Reference value :  8.54267e-06
 Reference value :  8.54552e-06
 Reference value :  8.54915e-06
 Reference value :  8.55177e-06
 Reference value :  8.55470e-06
 Reference value :  8.56184e-06
 Reference value :  8.57817e-06
 Reference value :  8.60766e-06
 Reference value :  8.66691e-06
 Reference value :  8.74789e-06
 Reference value :  8.75011e-06
 Reference value :  8.75017e-06
 Reference value :  8.75022e-06
 Reference value :  8.75032e-06
 Reference value :  8.75109e-06
 Reference value :  8.75202e-06
 Reference value :  8.75322e-06
 Reference value :  8.75435e-06
 Reference value :  8.75499e-06
 Reference value :  8.75642e-06
 Reference value :  8.75957e-06
 Reference value :  8.77209e-06
 Reference value :  8.81078e-06
 Reference value :  8.84732e-06
 Reference value :  8.88184e-06
 Reference value :  8.90865e-06
 Reference value :  8.92559e-06
 Reference value :  8.94199e-06
 Reference value :  8.95704e-06
 Reference value :  8.98778e-06
 Reference value :  9.00000e-06
No. of Data Rows : 1347
ngspice-44 done
