
Note: Compatibility modes selected: hs a


Circuit: ** sch_path: /home/ece/cace/sar-adc-using-sky130-pdk/runs/run_2025-09-13_02-47-54/parameters/sndr/run_2/sndr_enob_fom.sch

option SCALE: Scale is set to 1e-06 for instance and model parameters
option SCALE: Scale is set to 1e-06 for instance and model parameters
option SCALE: Scale is set to 1e-06 for instance and model parameters
option SCALE: Scale is set to 1e-06 for instance and model parameters
Doing analysis at TEMP = 27.000000 and TNOM = 27.000000

Using KLU as Direct Linear Solver
Operating point simulation skipped by 'uic',
  now using transient initial conditions.
 Reference value :  1.00000e-12
 Reference value :  1.08400e-12
 Reference value :  2.33271e-12
 Reference value :  9.84422e-12
 Reference value :  6.27025e-11
 Reference value :  1.16730e-10
 Reference value :  4.51336e-10
 Reference value :  1.35954e-09
 Reference value :  3.19640e-09
 Reference value :  5.07187e-09
 Reference value :  6.75786e-09
 Reference value :  8.30107e-09
 Reference value :  1.15743e-08
 Reference value :  1.99116e-08
 Reference value :  2.79139e-08
 Reference value :  3.60321e-08
 Reference value :  9.41383e-08
 Reference value :  2.50110e-07
 Reference value :  2.50200e-07
 Reference value :  2.50254e-07
 Reference value :  2.50528e-07
 Reference value :  2.51271e-07
 Reference value :  2.52085e-07
 Reference value :  2.53198e-07
 Reference value :  2.54203e-07
 Reference value :  2.55433e-07
 Reference value :  2.58683e-07
 Reference value :  2.69541e-07
 Reference value :  3.27343e-07
 Reference value :  5.00000e-07
 Reference value :  5.00070e-07
 Reference value :  5.00124e-07
 Reference value :  5.00338e-07
 Reference value :  5.00827e-07
 Reference value :  5.01532e-07
 Reference value :  5.02818e-07
 Reference value :  5.04630e-07
 Reference value :  5.06443e-07
 Reference value :  5.08785e-07
 Reference value :  5.11229e-07
 Reference value :  5.12471e-07
 Reference value :  5.15541e-07
 Reference value :  5.20636e-07
 Reference value :  5.49766e-07
 Reference value :  7.50100e-07
 Reference value :  7.50170e-07
 Reference value :  7.50224e-07
 Reference value :  7.50448e-07
 Reference value :  7.50986e-07
 Reference value :  7.51860e-07
 Reference value :  7.52990e-07
 Reference value :  7.53972e-07
 Reference value :  7.55028e-07
 Reference value :  7.56545e-07
 Reference value :  7.59544e-07
 Reference value :  7.67041e-07
 Reference value :  8.72995e-07
 Reference value :  1.00001e-06
 Reference value :  1.00010e-06
 Reference value :  1.00016e-06
 Reference value :  1.00034e-06
 Reference value :  1.00083e-06
 Reference value :  1.00158e-06
 Reference value :  1.00242e-06
 Reference value :  1.00342e-06
 Reference value :  1.00439e-06
 Reference value :  1.00484e-06
 Reference value :  1.00663e-06
 Reference value :  1.00849e-06
 Reference value :  1.01018e-06
 Reference value :  1.01192e-06
 Reference value :  1.01353e-06
 Reference value :  1.01528e-06
 Reference value :  1.01722e-06
 Reference value :  1.02371e-06
 Reference value :  1.08491e-06
 Reference value :  1.25010e-06
 Reference value :  1.25017e-06
 Reference value :  1.25026e-06
 Reference value :  1.25140e-06
 Reference value :  1.25345e-06
 Reference value :  1.25528e-06
 Reference value :  1.25895e-06
 Reference value :  1.28743e-06
 Reference value :  1.50000e-06
 Reference value :  1.50007e-06
 Reference value :  1.50016e-06
 Reference value :  1.50083e-06
 Reference value :  1.50154e-06
 Reference value :  1.50282e-06
 Reference value :  1.50464e-06
 Reference value :  1.50598e-06
 Reference value :  1.50749e-06
 Reference value :  1.51030e-06
 Reference value :  1.54935e-06
 Reference value :  1.75013e-06
 Reference value :  1.75022e-06
 Reference value :  1.75069e-06
 Reference value :  1.75186e-06
 Reference value :  1.75345e-06
 Reference value :  1.75448e-06
 Reference value :  1.75580e-06
 Reference value :  1.75837e-06
 Reference value :  1.76108e-06
 Reference value :  1.79031e-06
 Reference value :  2.00000e-06
 Reference value :  2.00003e-06
 Reference value :  2.00010e-06
 Reference value :  2.00016e-06
 Reference value :  2.00034e-06
 Reference value :  2.00083e-06
 Reference value :  2.00158e-06
 Reference value :  2.00242e-06
 Reference value :  2.00290e-06
 Reference value :  2.00390e-06
 Reference value :  2.00484e-06
 Reference value :  2.00664e-06
 Reference value :  2.00850e-06
 Reference value :  2.01017e-06
 Reference value :  2.01191e-06
 Reference value :  2.01353e-06
 Reference value :  2.01623e-06
 Reference value :  2.02045e-06
 Reference value :  2.05279e-06
 Reference value :  2.25010e-06
 Reference value :  2.25020e-06
 Reference value :  2.25032e-06
 Reference value :  2.25140e-06
 Reference value :  2.25345e-06
 Reference value :  2.25601e-06
 Reference value :  2.26541e-06
 Reference value :  2.50000e-06
 Reference value :  2.50010e-06
 Reference value :  2.50034e-06
 Reference value :  2.50119e-06
 Reference value :  2.50235e-06
 Reference value :  2.50333e-06
 Reference value :  2.50536e-06
 Reference value :  2.50664e-06
 Reference value :  2.50839e-06
 Reference value :  2.51146e-06
 Reference value :  2.54866e-06
 Reference value :  2.75011e-06
 Reference value :  2.75020e-06
 Reference value :  2.75045e-06
 Reference value :  2.75140e-06
 Reference value :  2.75299e-06
 Reference value :  2.75397e-06
 Reference value :  2.75502e-06
 Reference value :  2.75661e-06
 Reference value :  2.75964e-06
 Reference value :  2.77493e-06
 Reference value :  3.00000e-06
 Reference value :  3.00010e-06
 Reference value :  3.00016e-06
 Reference value :  3.00052e-06
 Reference value :  3.00119e-06
 Reference value :  3.00201e-06
 Reference value :  3.00290e-06
 Reference value :  3.00390e-06
 Reference value :  3.00534e-06
 Reference value :  3.00841e-06
 Reference value :  3.01016e-06
 Reference value :  3.01191e-06
 Reference value :  3.01357e-06
 Reference value :  3.01634e-06
 Reference value :  3.02085e-06
 Reference value :  3.03984e-06
 Reference value :  3.07245e-06
 Reference value :  3.11469e-06
 Reference value :  3.13875e-06
 Reference value :  3.15379e-06
 Reference value :  3.25010e-06
 Reference value :  3.25020e-06
 Reference value :  3.25032e-06
 Reference value :  3.25098e-06
 Reference value :  3.25229e-06
 Reference value :  3.25345e-06
 Reference value :  3.25461e-06
 Reference value :  3.25890e-06
 Reference value :  3.28687e-06
 Reference value :  3.50001e-06
 Reference value :  3.50010e-06
 Reference value :  3.50016e-06
 Reference value :  3.50052e-06
 Reference value :  3.50119e-06
 Reference value :  3.50201e-06
 Reference value :  3.50290e-06
 Reference value :  3.50399e-06
 Reference value :  3.50616e-06
 Reference value :  3.50771e-06
 Reference value :  3.51086e-06
 Reference value :  3.52065e-06
 Reference value :  3.65788e-06
 Reference value :  3.75013e-06
 Reference value :  3.75021e-06
 Reference value :  3.75045e-06
 Reference value :  3.75140e-06
 Reference value :  3.75299e-06
 Reference value :  3.75344e-06
 Reference value :  3.75448e-06
 Reference value :  3.75579e-06
 Reference value :  3.76027e-06
 Reference value :  3.78232e-06
 Reference value :  3.95708e-06
 Reference value :  4.00003e-06
 Reference value :  4.00011e-06
 Reference value :  4.00022e-06
 Reference value :  4.00083e-06
 Reference value :  4.00158e-06
 Reference value :  4.00242e-06
 Reference value :  4.00289e-06
 Reference value :  4.00396e-06
 Reference value :  4.00500e-06
 Reference value :  4.00631e-06
 Reference value :  4.00996e-06
 Reference value :  4.01223e-06
 Reference value :  4.01524e-06
 Reference value :  4.02075e-06
 Reference value :  4.03295e-06
 Reference value :  4.04342e-06
 Reference value :  4.06352e-06
 Reference value :  4.16559e-06
 Reference value :  4.25017e-06
 Reference value :  4.25045e-06
 Reference value :  4.25140e-06
 Reference value :  4.25299e-06
 Reference value :  4.25395e-06
 Reference value :  4.25595e-06
 Reference value :  4.26148e-06
 Reference value :  4.28577e-06
 Reference value :  4.48014e-06
 Reference value :  4.50003e-06
 Reference value :  4.50011e-06
 Reference value :  4.50022e-06
 Reference value :  4.50052e-06
 Reference value :  4.50119e-06
 Reference value :  4.50195e-06
 Reference value :  4.50282e-06
 Reference value :  4.50388e-06
 Reference value :  4.50536e-06
 Reference value :  4.50598e-06
 Reference value :  4.50749e-06
 Reference value :  4.51028e-06
 Reference value :  4.52228e-06
 Reference value :  4.64495e-06
 Reference value :  4.75013e-06
 Reference value :  4.75021e-06
 Reference value :  4.75032e-06
 Reference value :  4.75098e-06
 Reference value :  4.75186e-06
 Reference value :  4.75344e-06
 Reference value :  4.75448e-06
 Reference value :  4.75579e-06
 Reference value :  4.75836e-06
 Reference value :  4.76105e-06
 Reference value :  4.78988e-06
 Reference value :  5.00000e-06
 Reference value :  5.00010e-06
 Reference value :  5.00022e-06
 Reference value :  5.00083e-06
 Reference value :  5.00158e-06
 Reference value :  5.00290e-06
 Reference value :  5.00390e-06
 Reference value :  5.00484e-06
 Reference value :  5.00664e-06
 Reference value :  5.00841e-06
 Reference value :  5.00928e-06
 Reference value :  5.01015e-06
 Reference value :  5.01111e-06
 Reference value :  5.01190e-06
 Reference value :  5.01354e-06
 Reference value :  5.01532e-06
 Reference value :  5.01730e-06
 Reference value :  5.02403e-06
 Reference value :  5.04913e-06
 Reference value :  5.06477e-06
 Reference value :  5.08694e-06
 Reference value :  5.15407e-06
 Reference value :  5.25013e-06
 Reference value :  5.25026e-06
 Reference value :  5.25098e-06
 Reference value :  5.25229e-06
 Reference value :  5.25344e-06
 Reference value :  5.25601e-06
 Reference value :  5.26544e-06
 Reference value :  5.50000e-06
 Reference value :  5.50012e-06
 Reference value :  5.50034e-06
 Reference value :  5.50119e-06
 Reference value :  5.50235e-06
 Reference value :  5.50333e-06
 Reference value :  5.50536e-06
 Reference value :  5.50664e-06
 Reference value :  5.50839e-06
 Reference value :  5.51143e-06
 Reference value :  5.53173e-06
 Reference value :  5.64380e-06
 Reference value :  5.75017e-06
 Reference value :  5.75022e-06
 Reference value :  5.75045e-06
 Reference value :  5.75098e-06
 Reference value :  5.75140e-06
 Reference value :  5.75229e-06
 Reference value :  5.75344e-06
 Reference value :  5.75448e-06
 Reference value :  5.75579e-06
 Reference value :  5.75749e-06
 Reference value :  5.75962e-06
 Reference value :  5.76731e-06
 Reference value :  5.81903e-06
 Reference value :  6.00000e-06
 Reference value :  6.00007e-06
 Reference value :  6.00016e-06
 Reference value :  6.00052e-06
 Reference value :  6.00119e-06
 Reference value :  6.00201e-06
 Reference value :  6.00290e-06
 Reference value :  6.00390e-06
 Reference value :  6.00484e-06
 Reference value :  6.00593e-06
 Reference value :  6.00758e-06
 Reference value :  6.00933e-06
 Reference value :  6.01016e-06
 Reference value :  6.01188e-06
 Reference value :  6.01348e-06
 Reference value :  6.01524e-06
 Reference value :  6.01721e-06
 Reference value :  6.01875e-06
 Reference value :  6.02337e-06
 Reference value :  6.02739e-06
 Reference value :  6.03461e-06
 Reference value :  6.07662e-06
 Reference value :  6.25010e-06
 Reference value :  6.25020e-06
 Reference value :  6.25032e-06
 Reference value :  6.25098e-06
 Reference value :  6.25186e-06
 Reference value :  6.25299e-06
 Reference value :  6.25396e-06
 Reference value :  6.25749e-06
 Reference value :  6.27278e-06
 Reference value :  6.37557e-06
 Reference value :  6.50001e-06
 Reference value :  6.50010e-06
 Reference value :  6.50022e-06
 Reference value :  6.50083e-06
 Reference value :  6.50154e-06
 Reference value :  6.50282e-06
 Reference value :  6.50388e-06
 Reference value :  6.50536e-06
 Reference value :  6.50664e-06
 Reference value :  6.50839e-06
 Reference value :  6.51028e-06
 Reference value :  6.51669e-06
 Reference value :  6.57944e-06
 Reference value :  6.75011e-06
 Reference value :  6.75020e-06
 Reference value :  6.75032e-06
 Reference value :  6.75098e-06
 Reference value :  6.75139e-06
 Reference value :  6.75229e-06
 Reference value :  6.75344e-06
 Reference value :  6.75447e-06
 Reference value :  6.75579e-06
 Reference value :  6.75749e-06
 Reference value :  6.75962e-06
 Reference value :  6.77470e-06
 Reference value :  6.99640e-06
 Reference value :  7.00003e-06
 Reference value :  7.00011e-06
 Reference value :  7.00034e-06
 Reference value :  7.00119e-06
 Reference value :  7.00201e-06
 Reference value :  7.00290e-06
 Reference value :  7.00390e-06
 Reference value :  7.00484e-06
 Reference value :  7.00664e-06
 Reference value :  7.00850e-06
 Reference value :  7.01016e-06
 Reference value :  7.01100e-06
 Reference value :  7.01180e-06
 Reference value :  7.01346e-06
 Reference value :  7.01526e-06
 Reference value :  7.01881e-06
 Reference value :  7.02551e-06
 Reference value :  7.07463e-06
 Reference value :  7.25011e-06
 Reference value :  7.25020e-06
 Reference value :  7.25032e-06
 Reference value :  7.25098e-06
 Reference value :  7.25186e-06
 Reference value :  7.25299e-06
 Reference value :  7.25396e-06
 Reference value :  7.25601e-06
 Reference value :  7.26175e-06
 Reference value :  7.31662e-06
 Reference value :  7.50001e-06
 Reference value :  7.50010e-06
 Reference value :  7.50016e-06
 Reference value :  7.50052e-06
 Reference value :  7.50119e-06
 Reference value :  7.50195e-06
 Reference value :  7.50282e-06
 Reference value :  7.50389e-06
 Reference value :  7.50536e-06
 Reference value :  7.50598e-06
 Reference value :  7.50749e-06
 Reference value :  7.51028e-06
 Reference value :  7.52214e-06
 Reference value :  7.57913e-06
 Reference value :  7.75011e-06
 Reference value :  7.75020e-06
 Reference value :  7.75026e-06
 Reference value :  7.75069e-06
 Reference value :  7.75139e-06
 Reference value :  7.75298e-06
 Reference value :  7.75344e-06
 Reference value :  7.75447e-06
 Reference value :  7.75578e-06
 Reference value :  7.75832e-06
 Reference value :  7.76099e-06
 Reference value :  7.78887e-06
 Reference value :  7.99125e-06
 Reference value :  8.00003e-06
 Reference value :  8.00010e-06
 Reference value :  8.00016e-06
 Reference value :  8.00034e-06
 Reference value :  8.00083e-06
 Reference value :  8.00158e-06
 Reference value :  8.00242e-06
 Reference value :  8.00290e-06
 Reference value :  8.00389e-06
 Reference value :  8.00484e-06
 Reference value :  8.00592e-06
 Reference value :  8.00742e-06
 Reference value :  8.00902e-06
 Reference value :  8.01282e-06
 Reference value :  8.01456e-06
 Reference value :  8.02008e-06
 Reference value :  8.04542e-06
 Reference value :  8.15418e-06
 Reference value :  8.25011e-06
 Reference value :  8.25017e-06
 Reference value :  8.25021e-06
 Reference value :  8.25026e-06
 Reference value :  8.25070e-06
 Reference value :  8.25139e-06
 Reference value :  8.25298e-06
 Reference value :  8.25535e-06
 Reference value :  8.25768e-06
 Reference value :  8.27499e-06
 Reference value :  8.50000e-06
 Reference value :  8.50007e-06
 Reference value :  8.50012e-06
 Reference value :  8.50035e-06
 Reference value :  8.50135e-06
 Reference value :  8.50228e-06
 Reference value :  8.50335e-06
 Reference value :  8.50438e-06
 Reference value :  8.50548e-06
 Reference value :  8.50885e-06
 Reference value :  8.52170e-06
 Reference value :  8.52571e-06
 Reference value :  8.53157e-06
 Reference value :  8.53721e-06
 Reference value :  8.54840e-06
 Reference value :  8.58630e-06
 Reference value :  8.65769e-06
 Reference value :  8.75010e-06
 Reference value :  8.75017e-06
 Reference value :  8.75022e-06
 Reference value :  8.75069e-06
 Reference value :  8.75185e-06
 Reference value :  8.75342e-06
 Reference value :  8.75600e-06
 Reference value :  8.77252e-06
 Reference value :  9.00001e-06
 Reference value :  9.00011e-06
 Reference value :  9.00034e-06
 Reference value :  9.00119e-06
 Reference value :  9.00235e-06
 Reference value :  9.00387e-06
 Reference value :  9.00643e-06
 Reference value :  9.00991e-06
 Reference value :  9.01240e-06
 Reference value :  9.02029e-06
 Reference value :  9.25010e-06
 Reference value :  9.25020e-06
 Reference value :  9.25032e-06
 Reference value :  9.25098e-06
 Reference value :  9.25229e-06
 Reference value :  9.25343e-06
 Reference value :  9.25500e-06
 Reference value :  9.25730e-06
 Reference value :  9.26347e-06
 Reference value :  9.34937e-06
 Reference value :  9.50003e-06
 Reference value :  9.50011e-06
 Reference value :  9.50022e-06
 Reference value :  9.50083e-06
 Reference value :  9.50158e-06
 Reference value :  9.50242e-06
 Reference value :  9.50342e-06
 Reference value :  9.50440e-06
 Reference value :  9.50534e-06
 Reference value :  9.50759e-06
 Reference value :  9.50928e-06
 Reference value :  9.51015e-06
 Reference value :  9.51192e-06
 Reference value :  9.51359e-06
 Reference value :  9.51538e-06
 Reference value :  9.51750e-06
 Reference value :  9.52473e-06
 Reference value :  9.56459e-06
 Reference value :  9.73159e-06
 Reference value :  9.75013e-06
 Reference value :  9.75021e-06
 Reference value :  9.75032e-06
 Reference value :  9.75098e-06
 Reference value :  9.75186e-06
 Reference value :  9.75299e-06
 Reference value :  9.75396e-06
 Reference value :  9.75601e-06
 Reference value :  9.76176e-06
 Reference value :  9.81670e-06
 Reference value :  1.00000e-05
 Reference value :  1.00001e-05
 Reference value :  1.00001e-05
 Reference value :  1.00003e-05
 Reference value :  1.00012e-05
 Reference value :  1.00019e-05
 Reference value :  1.00028e-05
 Reference value :  1.00039e-05
 Reference value :  1.00054e-05
 Reference value :  1.00060e-05
 Reference value :  1.00075e-05
 Reference value :  1.00092e-05
 Reference value :  1.00114e-05
 Reference value :  1.00221e-05
 Reference value :  1.00790e-05
 Reference value :  1.02501e-05
 Reference value :  1.02502e-05
 Reference value :  1.02502e-05
 Reference value :  1.02504e-05
 Reference value :  1.02510e-05
 Reference value :  1.02519e-05
 Reference value :  1.02530e-05
 Reference value :  1.02534e-05
 Reference value :  1.02545e-05
 Reference value :  1.02558e-05
 Reference value :  1.02575e-05
 Reference value :  1.02596e-05
 Reference value :  1.02673e-05
 Reference value :  1.03192e-05
 Reference value :  1.05000e-05
 Reference value :  1.05001e-05
 Reference value :  1.05003e-05
 Reference value :  1.05008e-05
 Reference value :  1.05016e-05
 Reference value :  1.05024e-05
 Reference value :  1.05029e-05
 Reference value :  1.05039e-05
 Reference value :  1.05048e-05
 Reference value :  1.05059e-05
 Reference value :  1.05076e-05
 Reference value :  1.05084e-05
 Reference value :  1.05102e-05
 Reference value :  1.05119e-05
 Reference value :  1.05136e-05
 Reference value :  1.05154e-05
 Reference value :  1.05175e-05
 Reference value :  1.05316e-05
 Reference value :  1.05926e-05
 Reference value :  1.07351e-05
 Reference value :  1.07501e-05
 Reference value :  1.07502e-05
 Reference value :  1.07502e-05
 Reference value :  1.07503e-05
 Reference value :  1.07507e-05
 Reference value :  1.07514e-05
 Reference value :  1.07523e-05
 Reference value :  1.07534e-05
 Reference value :  1.07553e-05
 Reference value :  1.07618e-05
 Reference value :  1.08167e-05
 Reference value :  1.10000e-05
 Reference value :  1.10001e-05
 Reference value :  1.10002e-05
 Reference value :  1.10005e-05
 Reference value :  1.10012e-05
 Reference value :  1.10015e-05
 Reference value :  1.10023e-05
 Reference value :  1.10028e-05
 Reference value :  1.10039e-05
 Reference value :  1.10054e-05
 Reference value :  1.10060e-05
 Reference value :  1.10075e-05
 Reference value :  1.10092e-05
 Reference value :  1.10103e-05
 Reference value :  1.10136e-05
 Reference value :  1.10221e-05
 Reference value :  1.10474e-05
 Reference value :  1.11422e-05
 Reference value :  1.12501e-05
 Reference value :  1.12502e-05
 Reference value :  1.12502e-05
 Reference value :  1.12503e-05
 Reference value :  1.12507e-05
 Reference value :  1.12514e-05
 Reference value :  1.12523e-05
 Reference value :  1.12534e-05
 Reference value :  1.12545e-05
 Reference value :  1.12558e-05
 Reference value :  1.12575e-05
 Reference value :  1.12596e-05
 Reference value :  1.12673e-05
 Reference value :  1.13192e-05
 Reference value :  1.15000e-05
 Reference value :  1.15001e-05
 Reference value :  1.15001e-05
 Reference value :  1.15002e-05
 Reference value :  1.15005e-05
 Reference value :  1.15012e-05
 Reference value :  1.15020e-05
 Reference value :  1.15029e-05
 Reference value :  1.15039e-05
 Reference value :  1.15048e-05
 Reference value :  1.15059e-05
 Reference value :  1.15076e-05
 Reference value :  1.15093e-05
 Reference value :  1.15102e-05
 Reference value :  1.15119e-05
 Reference value :  1.15136e-05
 Reference value :  1.15155e-05
 Reference value :  1.15177e-05
 Reference value :  1.15334e-05
 Reference value :  1.15848e-05
 Reference value :  1.16236e-05
 Reference value :  1.16389e-05
 Reference value :  1.16461e-05
 Reference value :  1.16772e-05
 Reference value :  1.17501e-05
 Reference value :  1.17502e-05
 Reference value :  1.17503e-05
 Reference value :  1.17514e-05
 Reference value :  1.17530e-05
 Reference value :  1.17546e-05
 Reference value :  1.17616e-05
 Reference value :  1.18727e-05
 Reference value :  1.20000e-05
 Reference value :  1.20001e-05
 Reference value :  1.20002e-05
 Reference value :  1.20008e-05
 Reference value :  1.20015e-05
 Reference value :  1.20028e-05
 Reference value :  1.20039e-05
 Reference value :  1.20053e-05
 Reference value :  1.20060e-05
 Reference value :  1.20075e-05
 Reference value :  1.20092e-05
 Reference value :  1.20114e-05
 Reference value :  1.20223e-05
 Reference value :  1.20803e-05
 Reference value :  1.21152e-05
 Reference value :  1.22330e-05
 Reference value :  1.22501e-05
 Reference value :  1.22502e-05
 Reference value :  1.22503e-05
 Reference value :  1.22510e-05
 Reference value :  1.22519e-05
 Reference value :  1.22530e-05
 Reference value :  1.22534e-05
 Reference value :  1.22545e-05
 Reference value :  1.22558e-05
 Reference value :  1.22583e-05
 Reference value :  1.22741e-05
 Reference value :  1.25000e-05
 Reference value :  1.25001e-05
 Reference value :  1.25003e-05
 Reference value :  1.25012e-05
 Reference value :  1.25020e-05
 Reference value :  1.25029e-05
 Reference value :  1.25039e-05
 Reference value :  1.25048e-05
 Reference value :  1.25059e-05
 Reference value :  1.25076e-05
 Reference value :  1.25084e-05
 Reference value :  1.25101e-05
 Reference value :  1.25119e-05
 Reference value :  1.25136e-05
 Reference value :  1.25154e-05
 Reference value :  1.25164e-05
 Reference value :  1.25192e-05
 Reference value :  1.25244e-05
 Reference value :  1.25291e-05
 Reference value :  1.25318e-05
 Reference value :  1.25383e-05
 Reference value :  1.25552e-05
 Reference value :  1.25667e-05
 Reference value :  1.25791e-05
 Reference value :  1.26028e-05
 Reference value :  1.26759e-05
 Reference value :  1.27501e-05
 Reference value :  1.27502e-05
 Reference value :  1.27502e-05
 Reference value :  1.27503e-05
 Reference value :  1.27507e-05
 Reference value :  1.27514e-05
 Reference value :  1.27523e-05
 Reference value :  1.27535e-05
 Reference value :  1.27546e-05
 Reference value :  1.27560e-05
 Reference value :  1.27616e-05
 Reference value :  1.27867e-05
 Reference value :  1.29871e-05
 Reference value :  1.30000e-05
 Reference value :  1.30001e-05
 Reference value :  1.30002e-05
 Reference value :  1.30008e-05
 Reference value :  1.30016e-05
 Reference value :  1.30029e-05
 Reference value :  1.30040e-05
 Reference value :  1.30055e-05
 Reference value :  1.30062e-05
 Reference value :  1.30077e-05
 Reference value :  1.30109e-05
 Reference value :  1.30296e-05
 Reference value :  1.32501e-05
 Reference value :  1.32502e-05
 Reference value :  1.32502e-05
 Reference value :  1.32504e-05
 Reference value :  1.32514e-05
 Reference value :  1.32530e-05
 Reference value :  1.32534e-05
 Reference value :  1.32545e-05
 Reference value :  1.32558e-05
 Reference value :  1.32636e-05
 Reference value :  1.33569e-05
 Reference value :  1.35000e-05
 Reference value :  1.35001e-05
 Reference value :  1.35003e-05
 Reference value :  1.35012e-05
 Reference value :  1.35020e-05
 Reference value :  1.35029e-05
 Reference value :  1.35040e-05
 Reference value :  1.35050e-05
 Reference value :  1.35063e-05
 Reference value :  1.35085e-05
 Reference value :  1.35112e-05
 Reference value :  1.35122e-05
 Reference value :  1.35143e-05
 Reference value :  1.35163e-05
 Reference value :  1.35208e-05
 Reference value :  1.35365e-05
 Reference value :  1.35594e-05
 Reference value :  1.36464e-05
 Reference value :  1.37501e-05
 Reference value :  1.37502e-05
 Reference value :  1.37502e-05
 Reference value :  1.37503e-05
 Reference value :  1.37507e-05
 Reference value :  1.37514e-05
 Reference value :  1.37523e-05
 Reference value :  1.37530e-05
 Reference value :  1.37534e-05
 Reference value :  1.37546e-05
 Reference value :  1.37574e-05
 Reference value :  1.37652e-05
 Reference value :  1.38151e-05
 Reference value :  1.40000e-05
 Reference value :  1.40000e-05
 Reference value :  1.40001e-05
 Reference value :  1.40001e-05
 Reference value :  1.40003e-05
 Reference value :  1.40008e-05
 Reference value :  1.40016e-05
 Reference value :  1.40029e-05
 Reference value :  1.40040e-05
 Reference value :  1.40055e-05
 Reference value :  1.40062e-05
 Reference value :  1.40077e-05
 Reference value :  1.40109e-05
 Reference value :  1.40205e-05
 Reference value :  1.40822e-05
 Reference value :  1.42501e-05
 Reference value :  1.42502e-05
 Reference value :  1.42503e-05
 Reference value :  1.42507e-05
 Reference value :  1.42514e-05
 Reference value :  1.42523e-05
 Reference value :  1.42534e-05
 Reference value :  1.42545e-05
 Reference value :  1.42566e-05
 Reference value :  1.42824e-05
 Reference value :  1.45000e-05
 Reference value :  1.45001e-05
 Reference value :  1.45002e-05
 Reference value :  1.45005e-05
 Reference value :  1.45016e-05
 Reference value :  1.45029e-05
 Reference value :  1.45045e-05
 Reference value :  1.45055e-05
 Reference value :  1.45071e-05
 Reference value :  1.45100e-05
 Reference value :  1.45112e-05
 Reference value :  1.45132e-05
 Reference value :  1.45152e-05
 Reference value :  1.45174e-05
 Reference value :  1.45240e-05
 Reference value :  1.45462e-05
 Reference value :  1.46323e-05
 Reference value :  1.47501e-05
 Reference value :  1.47502e-05
 Reference value :  1.47502e-05
 Reference value :  1.47504e-05
 Reference value :  1.47510e-05
 Reference value :  1.47514e-05
 Reference value :  1.47523e-05
 Reference value :  1.47535e-05
 Reference value :  1.47546e-05
 Reference value :  1.47574e-05
 Reference value :  1.47652e-05
 Reference value :  1.48154e-05
 Reference value :  1.50000e-05
 Reference value :  1.50001e-05
 Reference value :  1.50002e-05
 Reference value :  1.50003e-05
 Reference value :  1.50008e-05
 Reference value :  1.50016e-05
 Reference value :  1.50024e-05
 Reference value :  1.50034e-05
 Reference value :  1.50047e-05
 Reference value :  1.50062e-05
 Reference value :  1.50077e-05
 Reference value :  1.50096e-05
 Reference value :  1.50155e-05
 Reference value :  1.50471e-05
 Reference value :  1.52501e-05
 Reference value :  1.52502e-05
 Reference value :  1.52503e-05
 Reference value :  1.52510e-05
 Reference value :  1.52523e-05
 Reference value :  1.52534e-05
 Reference value :  1.52550e-05
 Reference value :  1.52582e-05
 Reference value :  1.53074e-05
 Reference value :  1.55007e-05
 Reference value :  1.55029e-05
 Reference value :  1.55042e-05
 Reference value :  1.55054e-05
 Reference value :  1.55078e-05
 Reference value :  1.55091e-05
 Reference value :  1.55118e-05
 Reference value :  1.55138e-05
 Reference value :  1.55171e-05
 Reference value :  1.55319e-05
 Reference value :  1.57501e-05
 Reference value :  1.57502e-05
 Reference value :  1.57503e-05
 Reference value :  1.57510e-05
 Reference value :  1.57519e-05
 Reference value :  1.57534e-05
 Reference value :  1.57545e-05
 Reference value :  1.57571e-05
 Reference value :  1.57703e-05
 Reference value :  1.59579e-05
 Reference value :  1.60001e-05
 Reference value :  1.60002e-05
 Reference value :  1.60005e-05
 Reference value :  1.60012e-05
 Reference value :  1.60020e-05
 Reference value :  1.60029e-05
 Reference value :  1.60040e-05
 Reference value :  1.60062e-05
 Reference value :  1.60077e-05
 Reference value :  1.60124e-05
 Reference value :  1.61458e-05
 Reference value :  1.62502e-05
 Reference value :  1.62503e-05
 Reference value :  1.62510e-05
 Reference value :  1.62519e-05
 Reference value :  1.62534e-05
 Reference value :  1.62545e-05
 Reference value :  1.62558e-05
 Reference value :  1.62699e-05
 Reference value :  1.65000e-05
 Reference value :  1.65002e-05
 Reference value :  1.65008e-05
 Reference value :  1.65020e-05
 Reference value :  1.65034e-05
 Reference value :  1.65050e-05
 Reference value :  1.65072e-05
 Reference value :  1.65118e-05
 Reference value :  1.67324e-05
 Reference value :  1.67502e-05
 Reference value :  1.67503e-05
 Reference value :  1.67507e-05
 Reference value :  1.67514e-05
 Reference value :  1.67523e-05
 Reference value :  1.67536e-05
 Reference value :  1.67553e-05
 Reference value :  1.67577e-05
 Reference value :  1.67662e-05
 Reference value :  1.68821e-05
 Reference value :  1.70021e-05
 Reference value :  1.70086e-05
 Reference value :  1.70155e-05
 Reference value :  1.70224e-05
 Reference value :  1.70250e-05
 Reference value :  1.70272e-05
 Reference value :  1.70307e-05
 Reference value :  1.70333e-05
 Reference value :  1.70354e-05
 Reference value :  1.70400e-05
 Reference value :  1.70500e-05
 Reference value :  1.70708e-05
 Reference value :  1.70819e-05
 Reference value :  1.70897e-05
 Reference value :  1.70986e-05
 Reference value :  1.71095e-05
 Reference value :  1.71346e-05
 Reference value :  1.72501e-05
 Reference value :  1.72502e-05
 Reference value :  1.72503e-05
 Reference value :  1.72507e-05
 Reference value :  1.72514e-05
 Reference value :  1.72518e-05
 Reference value :  1.72528e-05
 Reference value :  1.72532e-05
 Reference value :  1.72542e-05
 Reference value :  1.72554e-05
 Reference value :  1.72594e-05
 Reference value :  1.72891e-05
 Reference value :  1.75000e-05
 Reference value :  1.75001e-05
 Reference value :  1.75002e-05
 Reference value :  1.75008e-05
 Reference value :  1.75015e-05
 Reference value :  1.75028e-05
 Reference value :  1.75046e-05
 Reference value :  1.75064e-05
 Reference value :  1.75088e-05
 Reference value :  1.75112e-05
 Reference value :  1.75137e-05
 Reference value :  1.75204e-05
 Reference value :  1.75800e-05
 Reference value :  1.77501e-05
 Reference value :  1.77502e-05
 Reference value :  1.77504e-05
 Reference value :  1.77514e-05
 Reference value :  1.77530e-05
 Reference value :  1.77540e-05
 Reference value :  1.77558e-05
 Reference value :  1.77583e-05
 Reference value :  1.77635e-05
 Reference value :  1.78139e-05
 Reference value :  1.79751e-05
 Reference value :  1.80004e-05
 Reference value :  1.80017e-05
 Reference value :  1.80027e-05
 Reference value :  1.80036e-05
 Reference value :  1.80046e-05
 Reference value :  1.80063e-05
 Reference value :  1.80091e-05
 Reference value :  1.80109e-05
 Reference value :  1.80139e-05
 Reference value :  1.80157e-05
 Reference value :  1.80221e-05
 Reference value :  1.80740e-05
 Reference value :  1.82474e-05
 Reference value :  1.82501e-05
 Reference value :  1.82502e-05
 Reference value :  1.82504e-05
 Reference value :  1.82514e-05
 Reference value :  1.82530e-05
 Reference value :  1.82539e-05
 Reference value :  1.82560e-05
 Reference value :  1.82653e-05
 Reference value :  1.83750e-05
 Reference value :  1.85000e-05
 Reference value :  1.85001e-05
 Reference value :  1.85002e-05
 Reference value :  1.85008e-05
 Reference value :  1.85015e-05
 Reference value :  1.85028e-05
 Reference value :  1.85046e-05
 Reference value :  1.85060e-05
 Reference value :  1.85075e-05
 Reference value :  1.85103e-05
 Reference value :  1.85222e-05
 Reference value :  1.86428e-05
 Reference value :  1.87501e-05
 Reference value :  1.87502e-05
 Reference value :  1.87503e-05
 Reference value :  1.87507e-05
 Reference value :  1.87514e-05
 Reference value :  1.87530e-05
 Reference value :  1.87534e-05
 Reference value :  1.87545e-05
 Reference value :  1.87558e-05
 Reference value :  1.87583e-05
 Reference value :  1.87636e-05
 Reference value :  1.88180e-05
 Reference value :  1.90000e-05
 Reference value :  1.90001e-05
 Reference value :  1.90002e-05
 Reference value :  1.90008e-05
 Reference value :  1.90020e-05
 Reference value :  1.90029e-05
 Reference value :  1.90039e-05
 Reference value :  1.90048e-05
 Reference value :  1.90066e-05
 Reference value :  1.90084e-05
 Reference value :  1.90102e-05
 Reference value :  1.90119e-05
 Reference value :  1.90136e-05
 Reference value :  1.90164e-05
 Reference value :  1.90210e-05
 Reference value :  1.90635e-05
 Reference value :  1.92344e-05
 Reference value :  1.92501e-05
 Reference value :  1.92502e-05
 Reference value :  1.92503e-05
 Reference value :  1.92510e-05
 Reference value :  1.92519e-05
 Reference value :  1.92530e-05
 Reference value :  1.92540e-05
 Reference value :  1.92553e-05
 Reference value :  1.92575e-05
 Reference value :  1.92654e-05
 Reference value :  1.93168e-05
 Reference value :  1.95000e-05
 Reference value :  1.95002e-05
 Reference value :  1.95010e-05
 Reference value :  1.95015e-05
 Reference value :  1.95024e-05
 Reference value :  1.95041e-05
 Reference value :  1.95058e-05
 Reference value :  1.95076e-05
 Reference value :  1.95106e-05
 Reference value :  1.95174e-05
 Reference value :  1.95787e-05
 Reference value :  1.97501e-05
 Reference value :  1.97502e-05
 Reference value :  1.97503e-05
 Reference value :  1.97510e-05
 Reference value :  1.97519e-05
 Reference value :  1.97530e-05
 Reference value :  1.97534e-05
 Reference value :  1.97545e-05
 Reference value :  1.97558e-05
 Reference value :  1.97575e-05
 Reference value :  1.97596e-05
 Reference value :  1.97745e-05
 Reference value :  1.98766e-05
 Reference value :  2.00000e-05
 Reference value :  2.00001e-05
 Reference value :  2.00003e-05
 Reference value :  2.00012e-05
 Reference value :  2.00020e-05
 Reference value :  2.00029e-05
 Reference value :  2.00039e-05
 Reference value :  2.00048e-05
 Reference value :  2.00066e-05
 Reference value :  2.00084e-05
 Reference value :  2.00102e-05
 Reference value :  2.00119e-05
 Reference value :  2.00136e-05
 Reference value :  2.00164e-05
 Reference value :  2.00245e-05
 Reference value :  2.00593e-05
 Reference value :  2.01188e-05
 Reference value :  2.01547e-05
 Reference value :  2.01795e-05
 Reference value :  2.02305e-05
 Reference value :  2.02501e-05
 Reference value :  2.02502e-05
 Reference value :  2.02504e-05
 Reference value :  2.02514e-05
 Reference value :  2.02530e-05
 Reference value :  2.02540e-05
 Reference value :  2.02552e-05
 Reference value :  2.02616e-05
 Reference value :  2.03022e-05
 Reference value :  2.03244e-05
 Reference value :  2.03605e-05
 Reference value :  2.04605e-05
 Reference value :  2.05007e-05
 Reference value :  2.05030e-05
 Reference value :  2.05046e-05
 Reference value :  2.05070e-05
 Reference value :  2.05097e-05
 Reference value :  2.05142e-05
 Reference value :  2.05887e-05
 Reference value :  2.07501e-05
 Reference value :  2.07502e-05
 Reference value :  2.07510e-05
 Reference value :  2.07523e-05
 Reference value :  2.07534e-05
 Reference value :  2.07549e-05
 Reference value :  2.07572e-05
 Reference value :  2.07632e-05
 Reference value :  2.09092e-05
 Reference value :  2.10001e-05
 Reference value :  2.10003e-05
 Reference value :  2.10012e-05
 Reference value :  2.10020e-05
 Reference value :  2.10029e-05
 Reference value :  2.10039e-05
 Reference value :  2.10048e-05
 Reference value :  2.10066e-05
 Reference value :  2.10084e-05
 Reference value :  2.10101e-05
 Reference value :  2.10119e-05
 Reference value :  2.10145e-05
 Reference value :  2.10166e-05
 Reference value :  2.10254e-05
 Reference value :  2.10331e-05
 Reference value :  2.10386e-05
 Reference value :  2.10478e-05
 Reference value :  2.10707e-05
 Reference value :  2.11037e-05
 Reference value :  2.12252e-05
 Reference value :  2.12502e-05
 Reference value :  2.12503e-05
 Reference value :  2.12507e-05
 Reference value :  2.12514e-05
 Reference value :  2.12530e-05
 Reference value :  2.12540e-05
 Reference value :  2.12552e-05
 Reference value :  2.12589e-05
 Reference value :  2.12867e-05
 Reference value :  2.15000e-05
 Reference value :  2.15001e-05
 Reference value :  2.15001e-05
 Reference value :  2.15003e-05
 Reference value :  2.15008e-05
 Reference value :  2.15016e-05
 Reference value :  2.15024e-05
 Reference value :  2.15034e-05
 Reference value :  2.15047e-05
 Reference value :  2.15062e-05
 Reference value :  2.15077e-05
 Reference value :  2.15096e-05
 Reference value :  2.15205e-05
 Reference value :  2.16538e-05
 Reference value :  2.17501e-05
 Reference value :  2.17502e-05
 Reference value :  2.17504e-05
 Reference value :  2.17514e-05
 Reference value :  2.17530e-05
 Reference value :  2.17540e-05
 Reference value :  2.17550e-05
 Reference value :  2.17582e-05
 Reference value :  2.18070e-05
 Reference value :  2.20007e-05
 Reference value :  2.20030e-05
 Reference value :  2.20044e-05
 Reference value :  2.20050e-05
 Reference value :  2.20062e-05
 Reference value :  2.20094e-05
 Reference value :  2.20121e-05
 Reference value :  2.20139e-05
 Reference value :  2.20159e-05
 Reference value :  2.20201e-05
 Reference value :  2.20336e-05
 Reference value :  2.20738e-05
 Reference value :  2.21939e-05
 Reference value :  2.22502e-05
 Reference value :  2.22503e-05
 Reference value :  2.22507e-05
 Reference value :  2.22514e-05
 Reference value :  2.22530e-05
 Reference value :  2.22539e-05
 Reference value :  2.22551e-05
 Reference value :  2.22612e-05
 Reference value :  2.23092e-05
 Reference value :  2.25000e-05
 Reference value :  2.25001e-05
 Reference value :  2.25002e-05
 Reference value :  2.25008e-05
 Reference value :  2.25016e-05
 Reference value :  2.25034e-05
 Reference value :  2.25055e-05
 Reference value :  2.25069e-05
 Reference value :  2.25109e-05
 Reference value :  2.25466e-05
 Reference value :  2.27502e-05
 Reference value :  2.27503e-05
 Reference value :  2.27514e-05
 Reference value :  2.27534e-05
 Reference value :  2.27558e-05
 Reference value :  2.27825e-05
 Reference value :  2.30007e-05
 Reference value :  2.30028e-05
 Reference value :  2.30041e-05
 Reference value :  2.30053e-05
 Reference value :  2.30074e-05
 Reference value :  2.30115e-05
 Reference value :  2.30146e-05
 Reference value :  2.30165e-05
 Reference value :  2.30242e-05
 Reference value :  2.31295e-05
 Reference value :  2.32502e-05
 Reference value :  2.32503e-05
 Reference value :  2.32514e-05
 Reference value :  2.32529e-05
 Reference value :  2.32545e-05
 Reference value :  2.32585e-05
 Reference value :  2.33592e-05
 Reference value :  2.35000e-05
 Reference value :  2.35002e-05
 Reference value :  2.35008e-05
 Reference value :  2.35020e-05
 Reference value :  2.35029e-05
 Reference value :  2.35047e-05
 Reference value :  2.35062e-05
 Reference value :  2.35087e-05
 Reference value :  2.35155e-05
 Reference value :  2.37501e-05
 Reference value :  2.37502e-05
 Reference value :  2.37504e-05
 Reference value :  2.37514e-05
 Reference value :  2.37530e-05
 Reference value :  2.37540e-05
 Reference value :  2.37550e-05
 Reference value :  2.37566e-05
 Reference value :  2.37699e-05
 Reference value :  2.40000e-05
 Reference value :  2.40001e-05
 Reference value :  2.40008e-05
 Reference value :  2.40020e-05
 Reference value :  2.40034e-05
 Reference value :  2.40050e-05
 Reference value :  2.40085e-05
 Reference value :  2.40122e-05
 Reference value :  2.40152e-05
 Reference value :  2.40240e-05
 Reference value :  2.41216e-05
 Reference value :  2.42501e-05
 Reference value :  2.42503e-05
 Reference value :  2.42514e-05
 Reference value :  2.42530e-05
 Reference value :  2.42540e-05
 Reference value :  2.42553e-05
 Reference value :  2.42590e-05
 Reference value :  2.42733e-05
 Reference value :  2.43190e-05
 Reference value :  2.43482e-05
 Reference value :  2.43688e-05
 Reference value :  2.44176e-05
 Reference value :  2.45000e-05
 Reference value :  2.45001e-05
 Reference value :  2.45001e-05
 Reference value :  2.45003e-05
 Reference value :  2.45008e-05
 Reference value :  2.45015e-05
 Reference value :  2.45024e-05
 Reference value :  2.45028e-05
 Reference value :  2.45039e-05
 Reference value :  2.45054e-05
 Reference value :  2.45060e-05
 Reference value :  2.45075e-05
 Reference value :  2.45103e-05
 Reference value :  2.45167e-05
 Reference value :  2.45473e-05
 Reference value :  2.46333e-05
 Reference value :  2.47501e-05
 Reference value :  2.47501e-05
 Reference value :  2.47502e-05
 Reference value :  2.47503e-05
 Reference value :  2.47504e-05
 Reference value :  2.47514e-05
 Reference value :  2.47530e-05
 Reference value :  2.47540e-05
 Reference value :  2.47550e-05
 Reference value :  2.47558e-05
 Reference value :  2.47575e-05
 Reference value :  2.47596e-05
 Reference value :  2.47672e-05
 Reference value :  2.48176e-05
 Reference value :  2.50000e-05
 Reference value :  2.50001e-05
 Reference value :  2.50002e-05
 Reference value :  2.50005e-05
 Reference value :  2.50012e-05
 Reference value :  2.50020e-05
 Reference value :  2.50029e-05
 Reference value :  2.50039e-05
 Reference value :  2.50048e-05
 Reference value :  2.50059e-05
 Reference value :  2.50074e-05
 Reference value :  2.50090e-05
 Reference value :  2.50138e-05
 Reference value :  2.50201e-05
 Reference value :  2.50419e-05
 Reference value :  2.50530e-05
 Reference value :  2.50607e-05
 Reference value :  2.50803e-05
 Reference value :  2.51059e-05
 Reference value :  2.51962e-05
 Reference value :  2.52502e-05
 Reference value :  2.52503e-05
 Reference value :  2.52510e-05
 Reference value :  2.52519e-05
 Reference value :  2.52530e-05
 Reference value :  2.52545e-05
 Reference value :  2.52562e-05
 Reference value :  2.52592e-05
 Reference value :  2.52750e-05
 Reference value :  2.53822e-05
 Reference value :  2.55021e-05
 Reference value :  2.55085e-05
 Reference value :  2.55155e-05
 Reference value :  2.55224e-05
 Reference value :  2.55250e-05
 Reference value :  2.55271e-05
 Reference value :  2.55307e-05
 Reference value :  2.55329e-05
 Reference value :  2.55348e-05
 Reference value :  2.55394e-05
 Reference value :  2.55431e-05
 Reference value :  2.55523e-05
 Reference value :  2.55672e-05
 Reference value :  2.55776e-05
 Reference value :  2.55850e-05
 Reference value :  2.55962e-05
 Reference value :  2.56086e-05
 Reference value :  2.56299e-05
 Reference value :  2.57501e-05
 Reference value :  2.57502e-05
 Reference value :  2.57502e-05
 Reference value :  2.57507e-05
 Reference value :  2.57514e-05
 Reference value :  2.57518e-05
 Reference value :  2.57528e-05
 Reference value :  2.57537e-05
 Reference value :  2.57547e-05
 Reference value :  2.57562e-05
 Reference value :  2.57665e-05
 Reference value :  2.59861e-05
 Reference value :  2.60001e-05
 Reference value :  2.60002e-05
 Reference value :  2.60008e-05
 Reference value :  2.60015e-05
 Reference value :  2.60028e-05
 Reference value :  2.60046e-05
 Reference value :  2.60064e-05
 Reference value :  2.60088e-05
 Reference value :  2.60112e-05
 Reference value :  2.60124e-05
 Reference value :  2.60154e-05
 Reference value :  2.60255e-05
 Reference value :  2.60793e-05
 Reference value :  2.62501e-05
 Reference value :  2.62502e-05
 Reference value :  2.62504e-05
 Reference value :  2.62514e-05
 Reference value :  2.62530e-05
 Reference value :  2.62540e-05
 Reference value :  2.62550e-05
 Reference value :  2.62566e-05
 Reference value :  2.62595e-05
 Reference value :  2.62737e-05
 Reference value :  2.64763e-05
 Reference value :  2.65004e-05
 Reference value :  2.65016e-05
 Reference value :  2.65026e-05
 Reference value :  2.65036e-05
 Reference value :  2.65041e-05
 Reference value :  2.65046e-05
 Reference value :  2.65056e-05
 Reference value :  2.65073e-05
 Reference value :  2.65092e-05
 Reference value :  2.65112e-05
 Reference value :  2.65120e-05
 Reference value :  2.65137e-05
 Reference value :  2.65155e-05
 Reference value :  2.65177e-05
 Reference value :  2.65260e-05
 Reference value :  2.66472e-05
 Reference value :  2.67501e-05
 Reference value :  2.67502e-05
 Reference value :  2.67504e-05
 Reference value :  2.67514e-05
 Reference value :  2.67530e-05
 Reference value :  2.67539e-05
 Reference value :  2.67551e-05
 Reference value :  2.67587e-05
 Reference value :  2.67712e-05
 Reference value :  2.68627e-05
 Reference value :  2.70000e-05
 Reference value :  2.70001e-05
 Reference value :  2.70002e-05
 Reference value :  2.70005e-05
 Reference value :  2.70012e-05
 Reference value :  2.70019e-05
 Reference value :  2.70028e-05
 Reference value :  2.70039e-05
 Reference value :  2.70054e-05
 Reference value :  2.70060e-05
 Reference value :  2.70075e-05
 Reference value :  2.70092e-05
 Reference value :  2.70114e-05
 Reference value :  2.70221e-05
 Reference value :  2.70790e-05
 Reference value :  2.72501e-05
 Reference value :  2.72502e-05
 Reference value :  2.72503e-05
 Reference value :  2.72510e-05
 Reference value :  2.72519e-05
 Reference value :  2.72530e-05
 Reference value :  2.72540e-05
 Reference value :  2.72550e-05
 Reference value :  2.72566e-05
 Reference value :  2.72596e-05
 Reference value :  2.72749e-05
 Reference value :  2.74995e-05
 Reference value :  2.75000e-05
 Reference value :  2.75001e-05
 Reference value :  2.75002e-05
 Reference value :  2.75008e-05
 Reference value :  2.75016e-05
 Reference value :  2.75024e-05
 Reference value :  2.75034e-05
 Reference value :  2.75044e-05
 Reference value :  2.75053e-05
 Reference value :  2.75076e-05
 Reference value :  2.75093e-05
 Reference value :  2.75102e-05
 Reference value :  2.75119e-05
 Reference value :  2.75136e-05
 Reference value :  2.75164e-05
 Reference value :  2.75210e-05
 Reference value :  2.75638e-05
 Reference value :  2.77501e-05
 Reference value :  2.77502e-05
 Reference value :  2.77503e-05
 Reference value :  2.77514e-05
 Reference value :  2.77530e-05
 Reference value :  2.77546e-05
 Reference value :  2.77590e-05
 Reference value :  2.78168e-05
 Reference value :  2.80002e-05
 Reference value :  2.80009e-05
 Reference value :  2.80018e-05
 Reference value :  2.80033e-05
 Reference value :  2.80053e-05
 Reference value :  2.80060e-05
 Reference value :  2.80083e-05
 Reference value :  2.80113e-05
 Reference value :  2.80545e-05
 Reference value :  2.82501e-05
 Reference value :  2.82502e-05
 Reference value :  2.82503e-05
 Reference value :  2.82514e-05
 Reference value :  2.82530e-05
 Reference value :  2.82540e-05
 Reference value :  2.82550e-05
 Reference value :  2.82566e-05
 Reference value :  2.82596e-05
 Reference value :  2.82894e-05
 Reference value :  2.85000e-05
 Reference value :  2.85001e-05
 Reference value :  2.85003e-05
 Reference value :  2.85012e-05
 Reference value :  2.85020e-05
 Reference value :  2.85029e-05
 Reference value :  2.85039e-05
 Reference value :  2.85048e-05
 Reference value :  2.85066e-05
 Reference value :  2.85084e-05
 Reference value :  2.85102e-05
 Reference value :  2.85119e-05
 Reference value :  2.85136e-05
 Reference value :  2.85164e-05
 Reference value :  2.85312e-05
 Reference value :  2.86040e-05
 Reference value :  2.86456e-05
 Reference value :  2.87015e-05
 Reference value :  2.87411e-05
 Reference value :  2.87501e-05
 Reference value :  2.87502e-05
 Reference value :  2.87504e-05
 Reference value :  2.87514e-05
 Reference value :  2.87530e-05
 Reference value :  2.87540e-05
 Reference value :  2.87575e-05
 Reference value :  2.87875e-05
 Reference value :  2.89437e-05
 Reference value :  2.90011e-05
 Reference value :  2.90042e-05
 Reference value :  2.90063e-05
 Reference value :  2.90085e-05
 Reference value :  2.90109e-05
 Reference value :  2.90186e-05
 Reference value :  2.91053e-05
 Reference value :  2.92501e-05
 Reference value :  2.92502e-05
 Reference value :  2.92504e-05
 Reference value :  2.92514e-05
 Reference value :  2.92523e-05
 Reference value :  2.92533e-05
 Reference value :  2.92543e-05
 Reference value :  2.92555e-05
 Reference value :  2.92570e-05
 Reference value :  2.92603e-05
 Reference value :  2.92777e-05
 Reference value :  2.93497e-05
 Reference value :  2.95000e-05
 Reference value :  2.95001e-05
 Reference value :  2.95002e-05
 Reference value :  2.95005e-05
 Reference value :  2.95012e-05
 Reference value :  2.95020e-05
 Reference value :  2.95029e-05
 Reference value :  2.95039e-05
 Reference value :  2.95048e-05
 Reference value :  2.95066e-05
 Reference value :  2.95085e-05
 Reference value :  2.95102e-05
 Reference value :  2.95119e-05
 Reference value :  2.95135e-05
 Reference value :  2.95162e-05
 Reference value :  2.95188e-05
 Reference value :  2.95281e-05
 Reference value :  2.95363e-05
 Reference value :  2.95419e-05
 Reference value :  2.95514e-05
 Reference value :  2.95886e-05
 Reference value :  2.96641e-05
 Reference value :  2.97501e-05
 Reference value :  2.97502e-05
 Reference value :  2.97503e-05
 Reference value :  2.97507e-05
 Reference value :  2.97514e-05
 Reference value :  2.97523e-05
 Reference value :  2.97535e-05
 Reference value :  2.97546e-05
 Reference value :  2.97574e-05
 Reference value :  2.97652e-05
 Reference value :  2.98153e-05
 Reference value :  3.00000e-05
 Reference value :  3.00001e-05
 Reference value :  3.00001e-05
 Reference value :  3.00003e-05
 Reference value :  3.00012e-05
 Reference value :  3.00020e-05
 Reference value :  3.00029e-05
 Reference value :  3.00047e-05
 Reference value :  3.00062e-05
 Reference value :  3.00077e-05
 Reference value :  3.00109e-05
 Reference value :  3.00295e-05
 Reference value :  3.01526e-05
 Reference value :  3.02501e-05
 Reference value :  3.02502e-05
 Reference value :  3.02503e-05
 Reference value :  3.02510e-05
 Reference value :  3.02519e-05
 Reference value :  3.02530e-05
 Reference value :  3.02534e-05
 Reference value :  3.02545e-05
 Reference value :  3.02558e-05
 Reference value :  3.02603e-05
 Reference value :  3.02822e-05
 Reference value :  3.04564e-05
 Reference value :  3.05007e-05
 Reference value :  3.05022e-05
 Reference value :  3.05030e-05
 Reference value :  3.05044e-05
 Reference value :  3.05051e-05
 Reference value :  3.05056e-05
 Reference value :  3.05071e-05
 Reference value :  3.05097e-05
 Reference value :  3.05109e-05
 Reference value :  3.05131e-05
 Reference value :  3.05148e-05
 Reference value :  3.05169e-05
 Reference value :  3.05199e-05
 Reference value :  3.05340e-05
 Reference value :  3.05740e-05
 Reference value :  3.06944e-05
 Reference value :  3.07501e-05
 Reference value :  3.07502e-05
 Reference value :  3.07503e-05
 Reference value :  3.07507e-05
 Reference value :  3.07514e-05
 Reference value :  3.07529e-05
 Reference value :  3.07539e-05
 Reference value :  3.07545e-05
 Reference value :  3.07572e-05
 Reference value :  3.07644e-05
 Reference value :  3.08605e-05
 Reference value :  3.10000e-05
 Reference value :  3.10001e-05
 Reference value :  3.10001e-05
 Reference value :  3.10003e-05
 Reference value :  3.10008e-05
 Reference value :  3.10016e-05
 Reference value :  3.10024e-05
 Reference value :  3.10029e-05
 Reference value :  3.10040e-05
 Reference value :  3.10055e-05
 Reference value :  3.10062e-05
 Reference value :  3.10077e-05
 Reference value :  3.10096e-05
 Reference value :  3.10155e-05
 Reference value :  3.10465e-05
 Reference value :  3.12501e-05
 Reference value :  3.12501e-05
 Reference value :  3.12502e-05
 Reference value :  3.12503e-05
 Reference value :  3.12504e-05
 Reference value :  3.12510e-05
 Reference value :  3.12519e-05
 Reference value :  3.12530e-05
 Reference value :  3.12534e-05
 Reference value :  3.12545e-05
 Reference value :  3.12558e-05
 Reference value :  3.12602e-05
 Reference value :  3.12820e-05
 Reference value :  3.13559e-05
 Reference value :  3.15000e-05
 Reference value :  3.15001e-05
 Reference value :  3.15001e-05
 Reference value :  3.15002e-05
 Reference value :  3.15005e-05
 Reference value :  3.15012e-05
 Reference value :  3.15016e-05
 Reference value :  3.15024e-05
 Reference value :  3.15029e-05
 Reference value :  3.15040e-05
 Reference value :  3.15050e-05
 Reference value :  3.15063e-05
 Reference value :  3.15085e-05
 Reference value :  3.15100e-05
 Reference value :  3.15112e-05
 Reference value :  3.15122e-05
 Reference value :  3.15143e-05
 Reference value :  3.15163e-05
 Reference value :  3.15208e-05
 Reference value :  3.15362e-05
 Reference value :  3.15830e-05
 Reference value :  3.17501e-05
 Reference value :  3.17502e-05
 Reference value :  3.17502e-05
 Reference value :  3.17504e-05
 Reference value :  3.17510e-05
 Reference value :  3.17514e-05
 Reference value :  3.17523e-05
 Reference value :  3.17535e-05
 Reference value :  3.17546e-05
 Reference value :  3.17574e-05
 Reference value :  3.17724e-05
 Reference value :  3.18729e-05
 Reference value :  3.20000e-05
 Reference value :  3.20001e-05
 Reference value :  3.20002e-05
 Reference value :  3.20005e-05
 Reference value :  3.20012e-05
 Reference value :  3.20020e-05
 Reference value :  3.20029e-05
 Reference value :  3.20040e-05
 Reference value :  3.20055e-05
 Reference value :  3.20062e-05
 Reference value :  3.20077e-05
 Reference value :  3.20109e-05
 Reference value :  3.20205e-05
 Reference value :  3.21518e-05
 Reference value :  3.22501e-05
 Reference value :  3.22502e-05
 Reference value :  3.22503e-05
 Reference value :  3.22507e-05
 Reference value :  3.22514e-05
 Reference value :  3.22523e-05
 Reference value :  3.22534e-05
 Reference value :  3.22545e-05
 Reference value :  3.22558e-05
 Reference value :  3.22603e-05
 Reference value :  3.22823e-05
 Reference value :  3.24573e-05
 Reference value :  3.25000e-05
 Reference value :  3.25001e-05
 Reference value :  3.25002e-05
 Reference value :  3.25003e-05
 Reference value :  3.25008e-05
 Reference value :  3.25016e-05
 Reference value :  3.25024e-05
 Reference value :  3.25034e-05
 Reference value :  3.25050e-05
 Reference value :  3.25071e-05
 Reference value :  3.25112e-05
 Reference value :  3.25132e-05
 Reference value :  3.25152e-05
 Reference value :  3.25191e-05
 Reference value :  3.25365e-05
 Reference value :  3.25573e-05
 Reference value :  3.25719e-05
 Reference value :  3.26051e-05
 Reference value :  3.26861e-05
 Reference value :  3.27501e-05
 Reference value :  3.27502e-05
 Reference value :  3.27503e-05
 Reference value :  3.27510e-05
 Reference value :  3.27519e-05
 Reference value :  3.27530e-05
 Reference value :  3.27539e-05
 Reference value :  3.27553e-05
 Reference value :  3.27588e-05
 Reference value :  3.27718e-05
 Reference value :  3.29789e-05
 Reference value :  3.30001e-05
 Reference value :  3.30001e-05
 Reference value :  3.30003e-05
 Reference value :  3.30008e-05
 Reference value :  3.30015e-05
 Reference value :  3.30023e-05
 Reference value :  3.30033e-05
 Reference value :  3.30046e-05
 Reference value :  3.30060e-05
 Reference value :  3.30075e-05
 Reference value :  3.30092e-05
 Reference value :  3.30114e-05
 Reference value :  3.30167e-05
 Reference value :  3.30474e-05
 Reference value :  3.32501e-05
 Reference value :  3.32502e-05
 Reference value :  3.32502e-05
 Reference value :  3.32504e-05
 Reference value :  3.32514e-05
 Reference value :  3.32530e-05
 Reference value :  3.32540e-05
 Reference value :  3.32550e-05
 Reference value :  3.32566e-05
 Reference value :  3.32596e-05
 Reference value :  3.32747e-05
 Reference value :  3.34969e-05
 Reference value :  3.35001e-05
 Reference value :  3.35001e-05
 Reference value :  3.35003e-05
 Reference value :  3.35012e-05
 Reference value :  3.35020e-05
 Reference value :  3.35029e-05
 Reference value :  3.35039e-05
 Reference value :  3.35048e-05
 Reference value :  3.35065e-05
 Reference value :  3.35080e-05
 Reference value :  3.35094e-05
 Reference value :  3.35138e-05
 Reference value :  3.35155e-05
 Reference value :  3.35323e-05
 Reference value :  3.35728e-05
 Reference value :  3.36884e-05
 Reference value :  3.37501e-05
 Reference value :  3.37502e-05
 Reference value :  3.37503e-05
 Reference value :  3.37510e-05
 Reference value :  3.37514e-05
 Reference value :  3.37523e-05
 Reference value :  3.37536e-05
 Reference value :  3.37553e-05
 Reference value :  3.37577e-05
 Reference value :  3.37663e-05
 Reference value :  3.38217e-05
 Reference value :  3.38630e-05
 Reference value :  3.40000e-05
 Reference value :  3.40001e-05
 Reference value :  3.40001e-05
 Reference value :  3.40003e-05
 Reference value :  3.40014e-05
 Reference value :  3.40028e-05
 Reference value :  3.40039e-05
 Reference value :  3.40049e-05
 Reference value :  3.40061e-05
 Reference value :  3.40217e-05
 Reference value :  3.40258e-05
 Reference value :  3.40287e-05
 Reference value :  3.40311e-05
 Reference value :  3.40331e-05
 Reference value :  3.40354e-05
 Reference value :  3.40365e-05
 Reference value :  3.40410e-05
 Reference value :  3.40441e-05
 Reference value :  3.40525e-05
 Reference value :  3.40614e-05
 Reference value :  3.40714e-05
 Reference value :  3.40798e-05
 Reference value :  3.40883e-05
 Reference value :  3.40978e-05
 Reference value :  3.41087e-05
 Reference value :  3.41764e-05
 Reference value :  3.42501e-05
 Reference value :  3.42502e-05
 Reference value :  3.42503e-05
 Reference value :  3.42504e-05
 Reference value :  3.42510e-05
 Reference value :  3.42514e-05
 Reference value :  3.42523e-05
 Reference value :  3.42534e-05
 Reference value :  3.42545e-05
 Reference value :  3.42573e-05
 Reference value :  3.42851e-05
 Reference value :  3.45000e-05
 Reference value :  3.45002e-05
 Reference value :  3.45012e-05
 Reference value :  3.45023e-05
 Reference value :  3.45039e-05
 Reference value :  3.45064e-05
 Reference value :  3.45088e-05
 Reference value :  3.45112e-05
 Reference value :  3.45137e-05
 Reference value :  3.45204e-05
 Reference value :  3.46390e-05
 Reference value :  3.47502e-05
 Reference value :  3.47503e-05
 Reference value :  3.47510e-05
 Reference value :  3.47519e-05
 Reference value :  3.47530e-05
 Reference value :  3.47540e-05
 Reference value :  3.47550e-05
 Reference value :  3.47566e-05
 Reference value :  3.47596e-05
 Reference value :  3.47730e-05
 Reference value :  3.50000e-05
 Reference value :  3.50001e-05
 Reference value :  3.50003e-05
 Reference value :  3.50012e-05
 Reference value :  3.50024e-05
 Reference value :  3.50034e-05
 Reference value :  3.50044e-05
 Reference value :  3.50053e-05
 Reference value :  3.50066e-05
 Reference value :  3.50084e-05
 Reference value :  3.50102e-05
 Reference value :  3.50119e-05
 Reference value :  3.50136e-05
 Reference value :  3.50154e-05
 Reference value :  3.50164e-05
 Reference value :  3.50192e-05
 Reference value :  3.50247e-05
 Reference value :  3.50647e-05
 Reference value :  3.52317e-05
 Reference value :  3.52501e-05
 Reference value :  3.52502e-05
 Reference value :  3.52507e-05
 Reference value :  3.52514e-05
 Reference value :  3.52530e-05
 Reference value :  3.52540e-05
 Reference value :  3.52560e-05
 Reference value :  3.52654e-05
 Reference value :  3.53757e-05
 Reference value :  3.55000e-05
 Reference value :  3.55001e-05
 Reference value :  3.55001e-05
 Reference value :  3.55002e-05
 Reference value :  3.55008e-05
 Reference value :  3.55015e-05
 Reference value :  3.55023e-05
 Reference value :  3.55028e-05
 Reference value :  3.55039e-05
 Reference value :  3.55054e-05
 Reference value :  3.55060e-05
 Reference value :  3.55075e-05
 Reference value :  3.55103e-05
 Reference value :  3.55315e-05
 Reference value :  3.57501e-05
 Reference value :  3.57502e-05
 Reference value :  3.57503e-05
 Reference value :  3.57510e-05
 Reference value :  3.57519e-05
 Reference value :  3.57534e-05
 Reference value :  3.57545e-05
 Reference value :  3.57558e-05
 Reference value :  3.57583e-05
 Reference value :  3.57636e-05
 Reference value :  3.57896e-05
 Reference value :  3.60000e-05
 Reference value :  3.60001e-05
 Reference value :  3.60001e-05
 Reference value :  3.60002e-05
 Reference value :  3.60005e-05
 Reference value :  3.60012e-05
 Reference value :  3.60016e-05
 Reference value :  3.60024e-05
 Reference value :  3.60034e-05
 Reference value :  3.60039e-05
 Reference value :  3.60048e-05
 Reference value :  3.60066e-05
 Reference value :  3.60085e-05
 Reference value :  3.60102e-05
 Reference value :  3.60119e-05
 Reference value :  3.60135e-05
 Reference value :  3.60153e-05
 Reference value :  3.60172e-05
 Reference value :  3.60237e-05
 Reference value :  3.60537e-05
 Reference value :  3.61850e-05
 Reference value :  3.62501e-05
 Reference value :  3.62502e-05
 Reference value :  3.62503e-05
 Reference value :  3.62507e-05
 Reference value :  3.62514e-05
 Reference value :  3.62530e-05
 Reference value :  3.62540e-05
 Reference value :  3.62560e-05
 Reference value :  3.62590e-05
 Reference value :  3.63169e-05
 Reference value :  3.65000e-05
 Reference value :  3.65001e-05
 Reference value :  3.65001e-05
 Reference value :  3.65002e-05
 Reference value :  3.65005e-05
 Reference value :  3.65012e-05
 Reference value :  3.65019e-05
 Reference value :  3.65028e-05
 Reference value :  3.65039e-05
 Reference value :  3.65054e-05
 Reference value :  3.65060e-05
 Reference value :  3.65084e-05
 Reference value :  3.65136e-05
 Reference value :  3.66423e-05
 Reference value :  3.67502e-05
 Reference value :  3.67503e-05
 Reference value :  3.67514e-05
 Reference value :  3.67530e-05
 Reference value :  3.67545e-05
 Reference value :  3.67575e-05
 Reference value :  3.67674e-05
 Reference value :  3.70000e-05
 Reference value :  3.70002e-05
 Reference value :  3.70008e-05
 Reference value :  3.70020e-05
 Reference value :  3.70034e-05
 Reference value :  3.70048e-05
 Reference value :  3.70076e-05
 Reference value :  3.70102e-05
 Reference value :  3.70127e-05
 Reference value :  3.70154e-05
 Reference value :  3.70245e-05
 Reference value :  3.71312e-05
 Reference value :  3.72171e-05
 Reference value :  3.72502e-05
 Reference value :  3.72503e-05
 Reference value :  3.72514e-05
 Reference value :  3.72534e-05
 Reference value :  3.72560e-05
 Reference value :  3.72874e-05
 Reference value :  3.75000e-05
 Reference value :  3.75001e-05
 Reference value :  3.75003e-05
 Reference value :  3.75015e-05
 Reference value :  3.75028e-05
 Reference value :  3.75046e-05
 Reference value :  3.75060e-05
 Reference value :  3.75084e-05
 Reference value :  3.75167e-05
 Reference value :  3.76422e-05
 Reference value :  3.77502e-05
 Reference value :  3.77504e-05
 Reference value :  3.77519e-05
 Reference value :  3.77534e-05
 Reference value :  3.77550e-05
 Reference value :  3.77583e-05
 Reference value :  3.77896e-05
 Reference value :  3.80000e-05
 Reference value :  3.80001e-05
 Reference value :  3.80008e-05
 Reference value :  3.80020e-05
 Reference value :  3.80029e-05
 Reference value :  3.80039e-05
 Reference value :  3.80048e-05
 Reference value :  3.80066e-05
 Reference value :  3.80084e-05
 Reference value :  3.80102e-05
 Reference value :  3.80119e-05
 Reference value :  3.80136e-05
 Reference value :  3.80154e-05
 Reference value :  3.80195e-05
 Reference value :  3.80299e-05
 Reference value :  3.80384e-05
 Reference value :  3.80415e-05
 Reference value :  3.80466e-05
 Reference value :  3.80572e-05
 Reference value :  3.80848e-05
 Reference value :  3.81100e-05
 Reference value :  3.81820e-05
 Reference value :  3.82501e-05
 Reference value :  3.82502e-05
 Reference value :  3.82503e-05
 Reference value :  3.82507e-05
 Reference value :  3.82514e-05
 Reference value :  3.82523e-05
 Reference value :  3.82534e-05
 Reference value :  3.82552e-05
 Reference value :  3.82723e-05
 Reference value :  3.84869e-05
 Reference value :  3.85002e-05
 Reference value :  3.85009e-05
 Reference value :  3.85015e-05
 Reference value :  3.85024e-05
 Reference value :  3.85034e-05
 Reference value :  3.85048e-05
 Reference value :  3.85063e-05
 Reference value :  3.85079e-05
 Reference value :  3.85096e-05
 Reference value :  3.85166e-05
 Reference value :  3.85593e-05
 Reference value :  3.87501e-05
 Reference value :  3.87502e-05
 Reference value :  3.87503e-05
 Reference value :  3.87504e-05
 Reference value :  3.87514e-05
 Reference value :  3.87523e-05
 Reference value :  3.87534e-05
 Reference value :  3.87545e-05
 Reference value :  3.87558e-05
 Reference value :  3.87635e-05
 Reference value :  3.89548e-05
 Reference value :  3.90001e-05
 Reference value :  3.90001e-05
 Reference value :  3.90003e-05
 Reference value :  3.90012e-05
 Reference value :  3.90020e-05
 Reference value :  3.90029e-05
 Reference value :  3.90040e-05
 Reference value :  3.90050e-05
 Reference value :  3.90071e-05
 Reference value :  3.90100e-05
 Reference value :  3.90112e-05
 Reference value :  3.90132e-05
 Reference value :  3.90152e-05
 Reference value :  3.90174e-05
 Reference value :  3.90287e-05
 Reference value :  3.90474e-05
 Reference value :  3.91027e-05
 Reference value :  3.92501e-05
 Reference value :  3.92502e-05
 Reference value :  3.92502e-05
 Reference value :  3.92504e-05
 Reference value :  3.92514e-05
 Reference value :  3.92530e-05
 Reference value :  3.92540e-05
 Reference value :  3.92552e-05
 Reference value :  3.92574e-05
 Reference value :  3.92652e-05
 Reference value :  3.93152e-05
 Reference value :  3.95000e-05
 Reference value :  3.95001e-05
 Reference value :  3.95001e-05
 Reference value :  3.95003e-05
 Reference value :  3.95008e-05
 Reference value :  3.95016e-05
 Reference value :  3.95029e-05
 Reference value :  3.95040e-05
 Reference value :  3.95062e-05
 Reference value :  3.95077e-05
 Reference value :  3.95125e-05
 Reference value :  3.95471e-05
 Reference value :  3.97501e-05
 Reference value :  3.97502e-05
 Reference value :  3.97504e-05
 Reference value :  3.97514e-05
 Reference value :  3.97530e-05
 Reference value :  3.97534e-05
 Reference value :  3.97545e-05
 Reference value :  3.97558e-05
 Reference value :  3.97603e-05
 Reference value :  3.98073e-05
 Reference value :  4.00000e-05
 Reference value :  4.00001e-05
 Reference value :  4.00001e-05
 Reference value :  4.00002e-05
 Reference value :  4.00005e-05
 Reference value :  4.00012e-05
 Reference value :  4.00016e-05
 Reference value :  4.00024e-05
 Reference value :  4.00029e-05
 Reference value :  4.00040e-05
 Reference value :  4.00050e-05
 Reference value :  4.00063e-05
 Reference value :  4.00085e-05
 Reference value :  4.00112e-05
 Reference value :  4.00132e-05
 Reference value :  4.00152e-05
 Reference value :  4.00191e-05
 Reference value :  4.00287e-05
 Reference value :  4.00825e-05
 Reference value :  4.02501e-05
 Reference value :  4.02502e-05
 Reference value :  4.02503e-05
 Reference value :  4.02507e-05
 Reference value :  4.02514e-05
 Reference value :  4.02523e-05
 Reference value :  4.02535e-05
 Reference value :  4.02546e-05
 Reference value :  4.02560e-05
 Reference value :  4.02616e-05
 Reference value :  4.02868e-05
 Reference value :  4.04386e-05
 Reference value :  4.05000e-05
 Reference value :  4.05000e-05
 Reference value :  4.05001e-05
 Reference value :  4.05002e-05
 Reference value :  4.05008e-05
 Reference value :  4.05015e-05
 Reference value :  4.05023e-05
 Reference value :  4.05033e-05
 Reference value :  4.05053e-05
 Reference value :  4.05066e-05
 Reference value :  4.05084e-05
 Reference value :  4.05114e-05
 Reference value :  4.05322e-05
 Reference value :  4.06482e-05
 Reference value :  4.07501e-05
 Reference value :  4.07502e-05
 Reference value :  4.07503e-05
 Reference value :  4.07510e-05
 Reference value :  4.07514e-05
 Reference value :  4.07523e-05
 Reference value :  4.07530e-05
 Reference value :  4.07534e-05
 Reference value :  4.07545e-05
 Reference value :  4.07558e-05
 Reference value :  4.07574e-05
 Reference value :  4.07595e-05
 Reference value :  4.07670e-05
 Reference value :  4.08715e-05
 Reference value :  4.10010e-05
 Reference value :  4.10040e-05
 Reference value :  4.10057e-05
 Reference value :  4.10073e-05
 Reference value :  4.10089e-05
 Reference value :  4.10105e-05
 Reference value :  4.10123e-05
 Reference value :  4.10142e-05
 Reference value :  4.10174e-05
 Reference value :  4.10223e-05
 Reference value :  4.10350e-05
 Reference value :  4.10418e-05
 Reference value :  4.10616e-05
 Reference value :  4.10934e-05
 Reference value :  4.12501e-05
 Reference value :  4.12502e-05
 Reference value :  4.12502e-05
 Reference value :  4.12504e-05
 Reference value :  4.12514e-05
 Reference value :  4.12523e-05
 Reference value :  4.12533e-05
 Reference value :  4.12544e-05
 Reference value :  4.12567e-05
 Reference value :  4.12694e-05
 Reference value :  4.14538e-05
 Reference value :  4.15001e-05
 Reference value :  4.15002e-05
 Reference value :  4.15005e-05
 Reference value :  4.15012e-05
 Reference value :  4.15020e-05
 Reference value :  4.15029e-05
 Reference value :  4.15040e-05
 Reference value :  4.15055e-05
 Reference value :  4.15069e-05
 Reference value :  4.15087e-05
 Reference value :  4.15155e-05
 Reference value :  4.15828e-05
 Reference value :  4.17501e-05
 Reference value :  4.17502e-05
 Reference value :  4.17503e-05
 Reference value :  4.17507e-05
 Reference value :  4.17514e-05
 Reference value :  4.17523e-05
 Reference value :  4.17534e-05
 Reference value :  4.17545e-05
 Reference value :  4.17558e-05
 Reference value :  4.17602e-05
 Reference value :  4.17820e-05
 Reference value :  4.18557e-05
 Reference value :  4.20000e-05
 Reference value :  4.20001e-05
 Reference value :  4.20002e-05
 Reference value :  4.20005e-05
 Reference value :  4.20012e-05
 Reference value :  4.20020e-05
 Reference value :  4.20029e-05
 Reference value :  4.20040e-05
 Reference value :  4.20050e-05
 Reference value :  4.20064e-05
 Reference value :  4.20079e-05
 Reference value :  4.20098e-05
 Reference value :  4.20227e-05
 Reference value :  4.22329e-05
 Reference value :  4.22501e-05
 Reference value :  4.22502e-05
 Reference value :  4.22503e-05
 Reference value :  4.22504e-05
 Reference value :  4.22510e-05
 Reference value :  4.22514e-05
 Reference value :  4.22523e-05
 Reference value :  4.22536e-05
 Reference value :  4.22553e-05
 Reference value :  4.22577e-05
 Reference value :  4.22749e-05
 Reference value :  4.23821e-05
 Reference value :  4.25000e-05
 Reference value :  4.25001e-05
 Reference value :  4.25002e-05
 Reference value :  4.25009e-05
 Reference value :  4.25018e-05
 Reference value :  4.25028e-05
 Reference value :  4.25039e-05
 Reference value :  4.25049e-05
 Reference value :  4.25074e-05
 Reference value :  4.25217e-05
 Reference value :  4.25258e-05
 Reference value :  4.25287e-05
 Reference value :  4.25313e-05
 Reference value :  4.25347e-05
 Reference value :  4.25356e-05
 Reference value :  4.25387e-05
 Reference value :  4.25453e-05
 Reference value :  4.25590e-05
 Reference value :  4.25742e-05
 Reference value :  4.25815e-05
 Reference value :  4.25878e-05
 Reference value :  4.26052e-05
 Reference value :  4.26409e-05
 Reference value :  4.27501e-05
 Reference value :  4.27502e-05
 Reference value :  4.27503e-05
 Reference value :  4.27510e-05
 Reference value :  4.27519e-05
 Reference value :  4.27530e-05
 Reference value :  4.27539e-05
 Reference value :  4.27559e-05
 Reference value :  4.27614e-05
 Reference value :  4.28111e-05
 Reference value :  4.30000e-05
 Reference value :  4.30001e-05
 Reference value :  4.30002e-05
 Reference value :  4.30008e-05
 Reference value :  4.30015e-05
 Reference value :  4.30028e-05
 Reference value :  4.30046e-05
 Reference value :  4.30077e-05
 Reference value :  4.30099e-05
 Reference value :  4.30124e-05
 Reference value :  4.30172e-05
 Reference value :  4.30790e-05
 Reference value :  4.32502e-05
 Reference value :  4.32503e-05
 Reference value :  4.32510e-05
 Reference value :  4.32519e-05
 Reference value :  4.32534e-05
 Reference value :  4.32545e-05
 Reference value :  4.32558e-05
 Reference value :  4.32582e-05
 Reference value :  4.32635e-05
 Reference value :  4.33054e-05
 Reference value :  4.35011e-05
 Reference value :  4.35044e-05
 Reference value :  4.35063e-05
 Reference value :  4.35091e-05
 Reference value :  4.35108e-05
 Reference value :  4.35124e-05
 Reference value :  4.35146e-05
 Reference value :  4.35172e-05
 Reference value :  4.35231e-05
 Reference value :  4.35802e-05
 Reference value :  4.37501e-05
 Reference value :  4.37502e-05
 Reference value :  4.37507e-05
 Reference value :  4.37519e-05
 Reference value :  4.37533e-05
 Reference value :  4.37549e-05
 Reference value :  4.37804e-05
 Reference value :  4.40000e-05
 Reference value :  4.40002e-05
 Reference value :  4.40012e-05
 Reference value :  4.40023e-05
 Reference value :  4.40033e-05
 Reference value :  4.40054e-05
 Reference value :  4.40066e-05
 Reference value :  4.40092e-05
 Reference value :  4.40167e-05
 Reference value :  4.41419e-05
 Reference value :  4.42502e-05
 Reference value :  4.42503e-05
 Reference value :  4.42510e-05
 Reference value :  4.42523e-05
 Reference value :  4.42534e-05
 Reference value :  4.42550e-05
 Reference value :  4.42575e-05
 Reference value :  4.42637e-05
 Reference value :  4.43810e-05
 Reference value :  4.45001e-05
 Reference value :  4.45001e-05
 Reference value :  4.45003e-05
 Reference value :  4.45008e-05
 Reference value :  4.45016e-05
 Reference value :  4.45029e-05
 Reference value :  4.45044e-05
 Reference value :  4.45053e-05
 Reference value :  4.45076e-05
 Reference value :  4.45102e-05
 Reference value :  4.45127e-05
 Reference value :  4.45154e-05
 Reference value :  4.45210e-05
 Reference value :  4.45926e-05
 Reference value :  4.47501e-05
 Reference value :  4.47502e-05
 Reference value :  4.47503e-05
 Reference value :  4.47510e-05
 Reference value :  4.47519e-05
 Reference value :  4.47530e-05
 Reference value :  4.47540e-05
 Reference value :  4.47575e-05
 Reference value :  4.48168e-05
 Reference value :  4.50000e-05
 Reference value :  4.50001e-05
 Reference value :  4.50002e-05
 Reference value :  4.50005e-05
 Reference value :  4.50012e-05
 Reference value :  4.50019e-05
 Reference value :  4.50028e-05
 Reference value :  4.50039e-05
 Reference value :  4.50054e-05
 Reference value :  4.50060e-05
 Reference value :  4.50075e-05
 Reference value :  4.50103e-05
 Reference value :  4.50315e-05
 Reference value :  4.52501e-05
 Reference value :  4.52502e-05
 Reference value :  4.52503e-05
 Reference value :  4.52507e-05
 Reference value :  4.52514e-05
 Reference value :  4.52530e-05
 Reference value :  4.52540e-05
 Reference value :  4.52558e-05
 Reference value :  4.52583e-05
 Reference value :  4.52636e-05
 Reference value :  4.53192e-05
 Reference value :  4.55000e-05
 Reference value :  4.55001e-05
 Reference value :  4.55002e-05
 Reference value :  4.55005e-05
 Reference value :  4.55012e-05
 Reference value :  4.55020e-05
 Reference value :  4.55029e-05
 Reference value :  4.55039e-05
 Reference value :  4.55048e-05
 Reference value :  4.55066e-05
 Reference value :  4.55084e-05
 Reference value :  4.55102e-05
 Reference value :  4.55119e-05
 Reference value :  4.55136e-05
 Reference value :  4.55154e-05
 Reference value :  4.55174e-05
 Reference value :  4.55312e-05
 Reference value :  4.55898e-05
 Reference value :  4.56593e-05
 Reference value :  4.57501e-05
 Reference value :  4.57502e-05
 Reference value :  4.57503e-05
 Reference value :  4.57510e-05
 Reference value :  4.57523e-05
 Reference value :  4.57534e-05
 Reference value :  4.57546e-05
 Reference value :  4.57575e-05
 Reference value :  4.57654e-05
 Reference value :  4.58168e-05
 Reference value :  4.59343e-05
 Reference value :  4.60011e-05
 Reference value :  4.60046e-05
 Reference value :  4.60067e-05
 Reference value :  4.60084e-05
 Reference value :  4.60114e-05
 Reference value :  4.60585e-05
 Reference value :  4.62501e-05
 Reference value :  4.62503e-05
 Reference value :  4.62510e-05
 Reference value :  4.62523e-05
 Reference value :  4.62533e-05
 Reference value :  4.62543e-05
 Reference value :  4.62562e-05
 Reference value :  4.62589e-05
 Reference value :  4.62703e-05
 Reference value :  4.63110e-05
 Reference value :  4.65000e-05
 Reference value :  4.65001e-05
 Reference value :  4.65001e-05
 Reference value :  4.65003e-05
 Reference value :  4.65008e-05
 Reference value :  4.65016e-05
 Reference value :  4.65024e-05
 Reference value :  4.65034e-05
 Reference value :  4.65039e-05
 Reference value :  4.65048e-05
 Reference value :  4.65059e-05
 Reference value :  4.65076e-05
 Reference value :  4.65093e-05
 Reference value :  4.65102e-05
 Reference value :  4.65119e-05
 Reference value :  4.65136e-05
 Reference value :  4.65154e-05
 Reference value :  4.65176e-05
 Reference value :  4.65295e-05
 Reference value :  4.65407e-05
 Reference value :  4.65446e-05
 Reference value :  4.65510e-05
 Reference value :  4.65668e-05
 Reference value :  4.65912e-05
 Reference value :  4.66188e-05
 Reference value :  4.66619e-05
 Reference value :  4.67501e-05
 Reference value :  4.67501e-05
 Reference value :  4.67502e-05
 Reference value :  4.67503e-05
 Reference value :  4.67504e-05
 Reference value :  4.67510e-05
 Reference value :  4.67514e-05
 Reference value :  4.67523e-05
 Reference value :  4.67534e-05
 Reference value :  4.67546e-05
 Reference value :  4.67560e-05
 Reference value :  4.67589e-05
 Reference value :  4.67723e-05
 Reference value :  4.68724e-05
 Reference value :  4.70000e-05
 Reference value :  4.70001e-05
 Reference value :  4.70002e-05
 Reference value :  4.70008e-05
 Reference value :  4.70020e-05
 Reference value :  4.70029e-05
 Reference value :  4.70047e-05
 Reference value :  4.70062e-05
 Reference value :  4.70077e-05
 Reference value :  4.70109e-05
 Reference value :  4.70205e-05
 Reference value :  4.70828e-05
 Reference value :  4.72501e-05
 Reference value :  4.72502e-05
 Reference value :  4.72502e-05
 Reference value :  4.72504e-05
 Reference value :  4.72510e-05
 Reference value :  4.72514e-05
 Reference value :  4.72523e-05
 Reference value :  4.72534e-05
 Reference value :  4.72545e-05
 Reference value :  4.72558e-05
 Reference value :  4.72582e-05
 Reference value :  4.72636e-05
 Reference value :  4.72822e-05
 Reference value :  4.74560e-05
 Reference value :  4.75000e-05
 Reference value :  4.75001e-05
 Reference value :  4.75001e-05
 Reference value :  4.75002e-05
 Reference value :  4.75005e-05
 Reference value :  4.75012e-05
 Reference value :  4.75016e-05
 Reference value :  4.75024e-05
 Reference value :  4.75034e-05
 Reference value :  4.75045e-05
 Reference value :  4.75055e-05
 Reference value :  4.75085e-05
 Reference value :  4.75112e-05
 Reference value :  4.75122e-05
 Reference value :  4.75143e-05
 Reference value :  4.75163e-05
 Reference value :  4.75191e-05
 Reference value :  4.75239e-05
 Reference value :  4.75362e-05
 Reference value :  4.75590e-05
 Reference value :  4.76027e-05
 Reference value :  4.77087e-05
 Reference value :  4.77501e-05
 Reference value :  4.77502e-05
 Reference value :  4.77502e-05
 Reference value :  4.77503e-05
[...]
 Reference value :  2.58091e-04
 Reference value :  2.58176e-04
 Reference value :  2.58250e-04
 Reference value :  2.58250e-04
 Reference value :  2.58250e-04
 Reference value :  2.58250e-04
 Reference value :  2.58251e-04
 Reference value :  2.58252e-04
 Reference value :  2.58253e-04
 Reference value :  2.58255e-04
 Reference value :  2.58259e-04
 Reference value :  2.58317e-04
 Reference value :  2.58500e-04
 Reference value :  2.58500e-04
 Reference value :  2.58500e-04
 Reference value :  2.58500e-04
 Reference value :  2.58501e-04
 Reference value :  2.58502e-04
 Reference value :  2.58503e-04
 Reference value :  2.58505e-04
 Reference value :  2.58506e-04
 Reference value :  2.58507e-04
 Reference value :  2.58509e-04
 Reference value :  2.58514e-04
 Reference value :  2.58532e-04
 Reference value :  2.58750e-04
 Reference value :  2.58750e-04
 Reference value :  2.58750e-04
 Reference value :  2.58751e-04
 Reference value :  2.58751e-04
 Reference value :  2.58753e-04
 Reference value :  2.58753e-04
 Reference value :  2.58754e-04
 Reference value :  2.58756e-04
 Reference value :  2.58757e-04
 Reference value :  2.58760e-04
 Reference value :  2.58790e-04
 Reference value :  2.59000e-04
 Reference value :  2.59000e-04
 Reference value :  2.59000e-04
 Reference value :  2.59000e-04
 Reference value :  2.59001e-04
 Reference value :  2.59001e-04
 Reference value :  2.59002e-04
 Reference value :  2.59002e-04
 Reference value :  2.59003e-04
 Reference value :  2.59004e-04
 Reference value :  2.59005e-04
 Reference value :  2.59007e-04
 Reference value :  2.59008e-04
 Reference value :  2.59010e-04
 Reference value :  2.59012e-04
 Reference value :  2.59014e-04
 Reference value :  2.59015e-04
 Reference value :  2.59017e-04
 Reference value :  2.59024e-04
 Reference value :  2.59058e-04
 Reference value :  2.59090e-04
 Reference value :  2.59102e-04
 Reference value :  2.59127e-04
 Reference value :  2.59149e-04
 Reference value :  2.59162e-04
 Reference value :  2.59172e-04
 Reference value :  2.59196e-04
 Reference value :  2.59250e-04
 Reference value :  2.59250e-04
 Reference value :  2.59250e-04
 Reference value :  2.59251e-04
 Reference value :  2.59252e-04
 Reference value :  2.59253e-04
 Reference value :  2.59254e-04
 Reference value :  2.59256e-04
 Reference value :  2.59262e-04
 Reference value :  2.59286e-04
 Reference value :  2.59405e-04
 Reference value :  2.59500e-04
 Reference value :  2.59500e-04
 Reference value :  2.59500e-04
 Reference value :  2.59501e-04
 Reference value :  2.59501e-04
 Reference value :  2.59502e-04
 Reference value :  2.59503e-04
 Reference value :  2.59504e-04
 Reference value :  2.59505e-04
 Reference value :  2.59506e-04
 Reference value :  2.59507e-04
 Reference value :  2.59509e-04
 Reference value :  2.59511e-04
 Reference value :  2.59532e-04
 Reference value :  2.59642e-04
 Reference value :  2.59750e-04
 Reference value :  2.59750e-04
 Reference value :  2.59750e-04
 Reference value :  2.59751e-04
 Reference value :  2.59751e-04
 Reference value :  2.59753e-04
 Reference value :  2.59753e-04
 Reference value :  2.59754e-04
 Reference value :  2.59756e-04
 Reference value :  2.59757e-04
 Reference value :  2.59760e-04
 Reference value :  2.59767e-04
 Reference value :  2.59819e-04
 Reference value :  2.60000e-04
 Reference value :  2.60000e-04
 Reference value :  2.60000e-04
 Reference value :  2.60000e-04
 Reference value :  2.60001e-04
 Reference value :  2.60002e-04
 Reference value :  2.60002e-04
 Reference value :  2.60003e-04
 Reference value :  2.60004e-04
 Reference value :  2.60005e-04
 Reference value :  2.60007e-04
 Reference value :  2.60008e-04
 Reference value :  2.60010e-04
 Reference value :  2.60012e-04
 Reference value :  2.60014e-04
 Reference value :  2.60017e-04
 Reference value :  2.60021e-04
 Reference value :  2.60033e-04
 Reference value :  2.60037e-04
 Reference value :  2.60043e-04
 Reference value :  2.60053e-04
 Reference value :  2.60099e-04
 Reference value :  2.60222e-04
 Reference value :  2.60250e-04
 Reference value :  2.60250e-04
 Reference value :  2.60251e-04
 Reference value :  2.60251e-04
 Reference value :  2.60253e-04
 Reference value :  2.60254e-04
 Reference value :  2.60255e-04
 Reference value :  2.60259e-04
 Reference value :  2.60272e-04
 Reference value :  2.60373e-04
 Reference value :  2.60500e-04
 Reference value :  2.60500e-04
 Reference value :  2.60500e-04
 Reference value :  2.60501e-04
 Reference value :  2.60501e-04
 Reference value :  2.60502e-04
 Reference value :  2.60503e-04
 Reference value :  2.60505e-04
 Reference value :  2.60506e-04
 Reference value :  2.60509e-04
 Reference value :  2.60516e-04
 Reference value :  2.60653e-04
 Reference value :  2.60750e-04
 Reference value :  2.60750e-04
 Reference value :  2.60751e-04
 Reference value :  2.60753e-04
 Reference value :  2.60754e-04
 Reference value :  2.60758e-04
 Reference value :  2.60856e-04
 Reference value :  2.61000e-04
 Reference value :  2.61000e-04
 Reference value :  2.61001e-04
 Reference value :  2.61002e-04
 Reference value :  2.61003e-04
 Reference value :  2.61005e-04
 Reference value :  2.61007e-04
 Reference value :  2.61010e-04
 Reference value :  2.61011e-04
 Reference value :  2.61013e-04
 Reference value :  2.61015e-04
 Reference value :  2.61017e-04
 Reference value :  2.61024e-04
 Reference value :  2.61046e-04
 Reference value :  2.61115e-04
 Reference value :  2.61250e-04
 Reference value :  2.61250e-04
 Reference value :  2.61250e-04
 Reference value :  2.61251e-04
 Reference value :  2.61251e-04
 Reference value :  2.61252e-04
 Reference value :  2.61253e-04
 Reference value :  2.61255e-04
 Reference value :  2.61256e-04
 Reference value :  2.61262e-04
 Reference value :  2.61287e-04
 Reference value :  2.61488e-04
 Reference value :  2.61500e-04
 Reference value :  2.61500e-04
 Reference value :  2.61500e-04
 Reference value :  2.61500e-04
 Reference value :  2.61501e-04
 Reference value :  2.61501e-04
 Reference value :  2.61502e-04
 Reference value :  2.61502e-04
 Reference value :  2.61503e-04
 Reference value :  2.61505e-04
 Reference value :  2.61506e-04
 Reference value :  2.61508e-04
 Reference value :  2.61510e-04
 Reference value :  2.61515e-04
 Reference value :  2.61547e-04
 Reference value :  2.61653e-04
 Reference value :  2.61750e-04
 Reference value :  2.61750e-04
 Reference value :  2.61750e-04
 Reference value :  2.61751e-04
 Reference value :  2.61751e-04
 Reference value :  2.61752e-04
 Reference value :  2.61753e-04
 Reference value :  2.61754e-04
 Reference value :  2.61756e-04
 Reference value :  2.61764e-04
 Reference value :  2.61857e-04
 Reference value :  2.62000e-04
 Reference value :  2.62000e-04
 Reference value :  2.62000e-04
 Reference value :  2.62001e-04
 Reference value :  2.62001e-04
 Reference value :  2.62002e-04
 Reference value :  2.62003e-04
 Reference value :  2.62004e-04
 Reference value :  2.62005e-04
 Reference value :  2.62006e-04
 Reference value :  2.62010e-04
 Reference value :  2.62012e-04
 Reference value :  2.62014e-04
 Reference value :  2.62016e-04
 Reference value :  2.62019e-04
 Reference value :  2.62029e-04
 Reference value :  2.62073e-04
 Reference value :  2.62250e-04
 Reference value :  2.62250e-04
 Reference value :  2.62250e-04
 Reference value :  2.62250e-04
 Reference value :  2.62251e-04
 Reference value :  2.62251e-04
 Reference value :  2.62252e-04
 Reference value :  2.62253e-04
 Reference value :  2.62254e-04
 Reference value :  2.62255e-04
 Reference value :  2.62259e-04
 Reference value :  2.62272e-04
 Reference value :  2.62487e-04
 Reference value :  2.62500e-04
 Reference value :  2.62500e-04
 Reference value :  2.62500e-04
 Reference value :  2.62501e-04
 Reference value :  2.62502e-04
 Reference value :  2.62502e-04
 Reference value :  2.62503e-04
 Reference value :  2.62504e-04
 Reference value :  2.62506e-04
 Reference value :  2.62506e-04
 Reference value :  2.62508e-04
 Reference value :  2.62510e-04
 Reference value :  2.62512e-04
 Reference value :  2.62529e-04
 Reference value :  2.62652e-04
 Reference value :  2.62750e-04
 Reference value :  2.62750e-04
 Reference value :  2.62750e-04
 Reference value :  2.62751e-04
 Reference value :  2.62751e-04
 Reference value :  2.62752e-04
 Reference value :  2.62753e-04
 Reference value :  2.62754e-04
 Reference value :  2.62756e-04
 Reference value :  2.62760e-04
 Reference value :  2.62782e-04
 Reference value :  2.62956e-04
 Reference value :  2.63000e-04
 Reference value :  2.63000e-04
 Reference value :  2.63000e-04
 Reference value :  2.63001e-04
 Reference value :  2.63002e-04
 Reference value :  2.63002e-04
 Reference value :  2.63003e-04
 Reference value :  2.63004e-04
 Reference value :  2.63005e-04
 Reference value :  2.63006e-04
 Reference value :  2.63009e-04
 Reference value :  2.63016e-04
 Reference value :  2.63037e-04
 Reference value :  2.63233e-04
 Reference value :  2.63250e-04
 Reference value :  2.63250e-04
 Reference value :  2.63250e-04
 Reference value :  2.63251e-04
 Reference value :  2.63252e-04
 Reference value :  2.63254e-04
 Reference value :  2.63255e-04
 Reference value :  2.63259e-04
 Reference value :  2.63291e-04
 Reference value :  2.63500e-04
 Reference value :  2.63500e-04
 Reference value :  2.63500e-04
 Reference value :  2.63501e-04
 Reference value :  2.63502e-04
 Reference value :  2.63503e-04
 Reference value :  2.63504e-04
 Reference value :  2.63505e-04
 Reference value :  2.63509e-04
 Reference value :  2.63517e-04
 Reference value :  2.63517e-04
 Reference value :  2.63521e-04
 Reference value :  2.63526e-04
 Reference value :  2.63529e-04
 Reference value :  2.63532e-04
 Reference value :  2.63536e-04
 Reference value :  2.63541e-04
 Reference value :  2.63544e-04
 Reference value :  2.63551e-04
 Reference value :  2.63559e-04
 Reference value :  2.63569e-04
 Reference value :  2.63596e-04
 Reference value :  2.63750e-04
 Reference value :  2.63750e-04
 Reference value :  2.63750e-04
 Reference value :  2.63751e-04
 Reference value :  2.63752e-04
 Reference value :  2.63753e-04
 Reference value :  2.63755e-04
 Reference value :  2.63759e-04
 Reference value :  2.63785e-04
 Reference value :  2.64000e-04
 Reference value :  2.64000e-04
 Reference value :  2.64000e-04
 Reference value :  2.64000e-04
 Reference value :  2.64001e-04
 Reference value :  2.64002e-04
 Reference value :  2.64002e-04
 Reference value :  2.64003e-04
 Reference value :  2.64005e-04
 Reference value :  2.64008e-04
 Reference value :  2.64009e-04
 Reference value :  2.64011e-04
 Reference value :  2.64014e-04
 Reference value :  2.64017e-04
 Reference value :  2.64049e-04
 Reference value :  2.64250e-04
 Reference value :  2.64250e-04
 Reference value :  2.64250e-04
 Reference value :  2.64251e-04
 Reference value :  2.64251e-04
 Reference value :  2.64252e-04
 Reference value :  2.64253e-04
 Reference value :  2.64254e-04
 Reference value :  2.64256e-04
 Reference value :  2.64258e-04
 Reference value :  2.64261e-04
 Reference value :  2.64285e-04
 Reference value :  2.64452e-04
 Reference value :  2.64500e-04
 Reference value :  2.64500e-04
 Reference value :  2.64500e-04
 Reference value :  2.64501e-04
 Reference value :  2.64502e-04
 Reference value :  2.64503e-04
 Reference value :  2.64504e-04
 Reference value :  2.64505e-04
 Reference value :  2.64507e-04
 Reference value :  2.64508e-04
 Reference value :  2.64510e-04
 Reference value :  2.64512e-04
 Reference value :  2.64514e-04
 Reference value :  2.64516e-04
 Reference value :  2.64525e-04
 Reference value :  2.64611e-04
 Reference value :  2.64750e-04
 Reference value :  2.64750e-04
 Reference value :  2.64751e-04
 Reference value :  2.64751e-04
 Reference value :  2.64753e-04
 Reference value :  2.64754e-04
 Reference value :  2.64756e-04
 Reference value :  2.64762e-04
 Reference value :  2.64787e-04
 Reference value :  2.64993e-04
 Reference value :  2.65000e-04
 Reference value :  2.65000e-04
 Reference value :  2.65000e-04
 Reference value :  2.65001e-04
 Reference value :  2.65001e-04
 Reference value :  2.65002e-04
 Reference value :  2.65003e-04
 Reference value :  2.65005e-04
 Reference value :  2.65006e-04
 Reference value :  2.65007e-04
 Reference value :  2.65009e-04
 Reference value :  2.65011e-04
 Reference value :  2.65022e-04
 Reference value :  2.65142e-04
 Reference value :  2.65250e-04
 Reference value :  2.65250e-04
 Reference value :  2.65250e-04
 Reference value :  2.65251e-04
 Reference value :  2.65252e-04
 Reference value :  2.65253e-04
 Reference value :  2.65253e-04
 Reference value :  2.65254e-04
 Reference value :  2.65256e-04
 Reference value :  2.65257e-04
 Reference value :  2.65264e-04
 Reference value :  2.65497e-04
 Reference value :  2.65500e-04
 Reference value :  2.65500e-04
 Reference value :  2.65500e-04
 Reference value :  2.65501e-04
 Reference value :  2.65502e-04
 Reference value :  2.65503e-04
 Reference value :  2.65504e-04
 Reference value :  2.65505e-04
 Reference value :  2.65507e-04
 Reference value :  2.65509e-04
 Reference value :  2.65511e-04
 Reference value :  2.65514e-04
 Reference value :  2.65516e-04
 Reference value :  2.65532e-04
 Reference value :  2.65641e-04
 Reference value :  2.65750e-04
 Reference value :  2.65750e-04
 Reference value :  2.65751e-04
 Reference value :  2.65752e-04
 Reference value :  2.65753e-04
 Reference value :  2.65756e-04
 Reference value :  2.65765e-04
 Reference value :  2.65876e-04
 Reference value :  2.66000e-04
 Reference value :  2.66000e-04
 Reference value :  2.66001e-04
 Reference value :  2.66002e-04
 Reference value :  2.66003e-04
 Reference value :  2.66005e-04
 Reference value :  2.66006e-04
 Reference value :  2.66007e-04
 Reference value :  2.66009e-04
 Reference value :  2.66011e-04
 Reference value :  2.66032e-04
 Reference value :  2.66142e-04
 Reference value :  2.66250e-04
 Reference value :  2.66250e-04
 Reference value :  2.66250e-04
 Reference value :  2.66251e-04
 Reference value :  2.66252e-04
 Reference value :  2.66253e-04
 Reference value :  2.66254e-04
 Reference value :  2.66255e-04
 Reference value :  2.66257e-04
 Reference value :  2.66260e-04
 Reference value :  2.66267e-04
 Reference value :  2.66378e-04
 Reference value :  2.66500e-04
 Reference value :  2.66500e-04
 Reference value :  2.66500e-04
 Reference value :  2.66501e-04
 Reference value :  2.66502e-04
 Reference value :  2.66502e-04
 Reference value :  2.66503e-04
 Reference value :  2.66504e-04
 Reference value :  2.66506e-04
 Reference value :  2.66508e-04
 Reference value :  2.66510e-04
 Reference value :  2.66512e-04
 Reference value :  2.66514e-04
 Reference value :  2.66516e-04
 Reference value :  2.66525e-04
 Reference value :  2.66591e-04
 Reference value :  2.66701e-04
 Reference value :  2.66750e-04
 Reference value :  2.66750e-04
 Reference value :  2.66750e-04
 Reference value :  2.66751e-04
 Reference value :  2.66753e-04
 Reference value :  2.66754e-04
 Reference value :  2.66756e-04
 Reference value :  2.66762e-04
 Reference value :  2.66817e-04
 Reference value :  2.67000e-04
 Reference value :  2.67000e-04
 Reference value :  2.67000e-04
 Reference value :  2.67000e-04
 Reference value :  2.67001e-04
 Reference value :  2.67002e-04
 Reference value :  2.67003e-04
 Reference value :  2.67005e-04
 Reference value :  2.67006e-04
 Reference value :  2.67007e-04
 Reference value :  2.67009e-04
 Reference value :  2.67011e-04
 Reference value :  2.67032e-04
 Reference value :  2.67250e-04
 Reference value :  2.67250e-04
 Reference value :  2.67250e-04
 Reference value :  2.67250e-04
 Reference value :  2.67251e-04
 Reference value :  2.67251e-04
 Reference value :  2.67253e-04
 Reference value :  2.67253e-04
 Reference value :  2.67254e-04
 Reference value :  2.67255e-04
 Reference value :  2.67257e-04
 Reference value :  2.67264e-04
 Reference value :  2.67497e-04
 Reference value :  2.67500e-04
 Reference value :  2.67500e-04
 Reference value :  2.67502e-04
 Reference value :  2.67503e-04
 Reference value :  2.67505e-04
 Reference value :  2.67508e-04
 Reference value :  2.67510e-04
 Reference value :  2.67514e-04
 Reference value :  2.67519e-04
 Reference value :  2.67574e-04
 Reference value :  2.67614e-04
 Reference value :  2.67639e-04
 Reference value :  2.67670e-04
 Reference value :  2.67750e-04
 Reference value :  2.67750e-04
 Reference value :  2.67751e-04
 Reference value :  2.67753e-04
 Reference value :  2.67757e-04
 Reference value :  2.67815e-04
 Reference value :  2.68000e-04
 Reference value :  2.68001e-04
 Reference value :  2.68002e-04
 Reference value :  2.68004e-04
 Reference value :  2.68007e-04
 Reference value :  2.68010e-04
 Reference value :  2.68079e-04
 Reference value :  2.68250e-04
 Reference value :  2.68251e-04
 Reference value :  2.68253e-04
 Reference value :  2.68254e-04
 Reference value :  2.68257e-04
 Reference value :  2.68275e-04
 Reference value :  2.68500e-04
 Reference value :  2.68500e-04
 Reference value :  2.68502e-04
 Reference value :  2.68503e-04
 Reference value :  2.68505e-04
 Reference value :  2.68508e-04
 Reference value :  2.68511e-04
 Reference value :  2.68514e-04
 Reference value :  2.68521e-04
 Reference value :  2.68537e-04
 Reference value :  2.68549e-04
 Reference value :  2.68559e-04
 Reference value :  2.68727e-04
 Reference value :  2.68750e-04
 Reference value :  2.68751e-04
 Reference value :  2.68753e-04
 Reference value :  2.68755e-04
 Reference value :  2.68772e-04
 Reference value :  2.69000e-04
 Reference value :  2.69000e-04
 Reference value :  2.69002e-04
 Reference value :  2.69003e-04
 Reference value :  2.69006e-04
 Reference value :  2.69010e-04
 Reference value :  2.69083e-04
 Reference value :  2.69250e-04
 Reference value :  2.69251e-04
 Reference value :  2.69253e-04
 Reference value :  2.69254e-04
 Reference value :  2.69260e-04
 Reference value :  2.69500e-04
 Reference value :  2.69500e-04
 Reference value :  2.69501e-04
 Reference value :  2.69503e-04
 Reference value :  2.69505e-04
 Reference value :  2.69510e-04
 Reference value :  2.69514e-04
 Reference value :  2.69519e-04
 Reference value :  2.69583e-04
 Reference value :  2.69750e-04
 Reference value :  2.69751e-04
 Reference value :  2.69752e-04
 Reference value :  2.69755e-04
 Reference value :  2.69765e-04
 Reference value :  2.70000e-04
 Reference value :  2.70000e-04
 Reference value :  2.70001e-04
 Reference value :  2.70003e-04
 Reference value :  2.70006e-04
 Reference value :  2.70010e-04
 Reference value :  2.70082e-04
 Reference value :  2.70250e-04
 Reference value :  2.70251e-04
 Reference value :  2.70253e-04
 Reference value :  2.70255e-04
 Reference value :  2.70264e-04
 Reference value :  2.70500e-04
 Reference value :  2.70500e-04
 Reference value :  2.70501e-04
 Reference value :  2.70503e-04
 Reference value :  2.70506e-04
 Reference value :  2.70511e-04
 Reference value :  2.70515e-04
 Reference value :  2.70536e-04
 Reference value :  2.70750e-04
 Reference value :  2.70750e-04
 Reference value :  2.70752e-04
 Reference value :  2.70754e-04
 Reference value :  2.70762e-04
 Reference value :  2.71000e-04
 Reference value :  2.71000e-04
 Reference value :  2.71001e-04
 Reference value :  2.71003e-04
 Reference value :  2.71006e-04
 Reference value :  2.71011e-04
 Reference value :  2.71152e-04
 Reference value :  2.71250e-04
 Reference value :  2.71251e-04
 Reference value :  2.71253e-04
 Reference value :  2.71256e-04
 Reference value :  2.71307e-04
 Reference value :  2.71500e-04
 Reference value :  2.71500e-04
 Reference value :  2.71502e-04
 Reference value :  2.71504e-04
 Reference value :  2.71506e-04
 Reference value :  2.71516e-04
 Reference value :  2.71750e-04
 Reference value :  2.71750e-04
 Reference value :  2.71752e-04
 Reference value :  2.71755e-04
 Reference value :  2.71762e-04
No. of Data Rows : 39094
ngspice-44 done
