
Note: Compatibility modes selected: hs a


Circuit: ** sch_path: /home/audrey/cace/sar-adc-using-sky130-pdk/runs/run_2025-08-29_17-44-38/parameters/power/run_02/power_consumption.sch

option SCALE: Scale is set to 1e-06 for instance and model parameters
option SCALE: Scale is set to 1e-06 for instance and model parameters
option SCALE: Scale is set to 1e-06 for instance and model parameters
option SCALE: Scale is set to 1e-06 for instance and model parameters
Doing analysis at TEMP = 27.000000 and TNOM = 27.000000

Using KLU as Direct Linear Solver
Operating point simulation skipped by 'uic',
  now using transient initial conditions.
 Reference value :  5.00000e-12
 Reference value :  5.42000e-12
 Reference value :  7.10000e-12
 Reference value :  1.60949e-11
 Reference value :  5.92393e-11
 Reference value :  3.61241e-10
 Reference value :  5.51748e-10
 Reference value :  1.03473e-09
 Reference value :  1.76947e-09
 Reference value :  2.90182e-09
 Reference value :  4.75541e-09
 Reference value :  6.46924e-09
 Reference value :  8.12900e-09
 Reference value :  1.01039e-08
 Reference value :  1.35341e-08
 Reference value :  1.51605e-08
 Reference value :  1.86135e-08
 Reference value :  2.83559e-08
 Reference value :  4.16550e-08
 Reference value :  9.66723e-08
 Reference value :  5.00000e-07
 Reference value :  1.00050e-06
 Reference value :  1.00100e-06
 Reference value :  1.00140e-06
 Reference value :  1.00248e-06
 Reference value :  1.00446e-06
 Reference value :  1.00581e-06
 Reference value :  1.00811e-06
 Reference value :  1.01682e-06
 Reference value :  1.08255e-06
 Reference value :  1.77944e-06
 Reference value :  2.00035e-06
 Reference value :  2.00061e-06
 Reference value :  2.00144e-06
 Reference value :  2.00233e-06
 Reference value :  2.00399e-06
 Reference value :  2.00539e-06
 Reference value :  2.00865e-06
 Reference value :  2.01275e-06
 Reference value :  2.01605e-06
 Reference value :  2.02035e-06
 Reference value :  2.03227e-06
 Reference value :  2.22580e-06
 Reference value :  3.00055e-06
 Reference value :  3.00100e-06
 Reference value :  3.00123e-06
 Reference value :  3.00230e-06
 Reference value :  3.00339e-06
 Reference value :  3.00475e-06
 Reference value :  3.00612e-06
 Reference value :  3.00767e-06
 Reference value :  3.01271e-06
 Reference value :  3.05381e-06
 Reference value :  3.60993e-06
 Reference value :  4.00035e-06
 Reference value :  4.00075e-06
 Reference value :  4.00144e-06
 Reference value :  4.00233e-06
 Reference value :  4.00396e-06
 Reference value :  4.00594e-06
 Reference value :  4.00711e-06
 Reference value :  4.01031e-06
 Reference value :  4.01383e-06
 Reference value :  4.01673e-06
 Reference value :  4.01920e-06
 Reference value :  4.02367e-06
 Reference value :  4.04329e-06
 Reference value :  4.07456e-06
 Reference value :  4.08699e-06
 Reference value :  4.10367e-06
 Reference value :  4.11780e-06
 Reference value :  4.16812e-06
 Reference value :  4.43449e-06
 Reference value :  5.00050e-06
 Reference value :  5.00085e-06
 Reference value :  5.00110e-06
 Reference value :  5.00150e-06
 Reference value :  5.00176e-06
 Reference value :  5.00230e-06
 Reference value :  5.00339e-06
 Reference value :  5.00472e-06
 Reference value :  5.00602e-06
 Reference value :  5.00669e-06
 Reference value :  5.00875e-06
 Reference value :  5.01638e-06
 Reference value :  5.05515e-06
 Reference value :  5.31320e-06
 Reference value :  6.00000e-06
 Reference value :  6.00005e-06
 Reference value :  6.00035e-06
 Reference value :  6.00054e-06
 Reference value :  6.00075e-06
 Reference value :  6.00144e-06
 Reference value :  6.00188e-06
 Reference value :  6.00228e-06
 Reference value :  6.00327e-06
 Reference value :  6.00386e-06
 Reference value :  6.00449e-06
 Reference value :  6.00614e-06
 Reference value :  6.00782e-06
 Reference value :  6.00968e-06
 Reference value :  6.01188e-06
 Reference value :  6.01541e-06
 Reference value :  6.02494e-06
 Reference value :  6.09496e-06
 Reference value :  6.64817e-06
 Reference value :  7.00055e-06
 Reference value :  7.00085e-06
 Reference value :  7.00103e-06
 Reference value :  7.00150e-06
 Reference value :  7.00230e-06
 Reference value :  7.00339e-06
 Reference value :  7.00475e-06
 Reference value :  7.00611e-06
 Reference value :  7.00765e-06
 Reference value :  7.00856e-06
 Reference value :  7.01060e-06
 Reference value :  7.01599e-06
 Reference value :  7.03300e-06
 Reference value :  7.06620e-06
 Reference value :  7.15312e-06
 Reference value :  7.48741e-06
 Reference value :  8.00000e-06
 Reference value :  8.00015e-06
 Reference value :  8.00050e-06
 Reference value :  8.00061e-06
 Reference value :  8.00103e-06
 Reference value :  8.00188e-06
 Reference value :  8.00285e-06
 Reference value :  8.00397e-06
 Reference value :  8.00518e-06
 Reference value :  8.00627e-06
 Reference value :  8.00842e-06
 Reference value :  8.00952e-06
 Reference value :  8.01175e-06
 Reference value :  8.01381e-06
 Reference value :  8.01563e-06
 Reference value :  8.01754e-06
 Reference value :  8.02103e-06
 Reference value :  8.02442e-06
 Reference value :  8.03980e-06
 Reference value :  8.10990e-06
 Reference value :  8.16643e-06
 Reference value :  8.18166e-06
 Reference value :  8.21169e-06
 Reference value :  8.24222e-06
 Reference value :  8.33087e-06
 Reference value :  8.40337e-06
 Reference value :  8.42914e-06
 Reference value :  8.44431e-06
 Reference value :  8.47542e-06
 Reference value :  8.52343e-06
 Reference value :  8.58227e-06
 Reference value :  8.77296e-06
 Reference value :  9.00065e-06
 Reference value :  9.00103e-06
 Reference value :  9.00150e-06
 Reference value :  9.00282e-06
 Reference value :  9.00472e-06
 Reference value :  9.00603e-06
 Reference value :  9.00772e-06
 Reference value :  9.01289e-06
 Reference value :  9.03462e-06
 Reference value :  9.09112e-06
 Reference value :  1.00000e-05
 Reference value :  1.00005e-05
 Reference value :  1.00007e-05
 Reference value :  1.00014e-05
 Reference value :  1.00023e-05
 Reference value :  1.00039e-05
 Reference value :  1.00052e-05
 Reference value :  1.00070e-05
 Reference value :  1.00078e-05
 Reference value :  1.00097e-05
 Reference value :  1.00119e-05
 Reference value :  1.00248e-05
 Reference value :  1.01710e-05
 Reference value :  1.10005e-05
 Reference value :  1.10010e-05
 Reference value :  1.10012e-05
 Reference value :  1.10023e-05
 Reference value :  1.10034e-05
 Reference value :  1.10048e-05
 Reference value :  1.10061e-05
 Reference value :  1.10076e-05
 Reference value :  1.10095e-05
 Reference value :  1.10119e-05
 Reference value :  1.10250e-05
 Reference value :  1.10973e-05
 Reference value :  1.14863e-05
 Reference value :  1.20000e-05
 Reference value :  1.20005e-05
 Reference value :  1.20007e-05
 Reference value :  1.20014e-05
 Reference value :  1.20023e-05
 Reference value :  1.20034e-05
 Reference value :  1.20040e-05
 Reference value :  1.20052e-05
 Reference value :  1.20063e-05
 Reference value :  1.20084e-05
 Reference value :  1.20095e-05
 Reference value :  1.20118e-05
 Reference value :  1.20138e-05
 Reference value :  1.20156e-05
 Reference value :  1.20175e-05
 Reference value :  1.20197e-05
 Reference value :  1.20210e-05
 Reference value :  1.20244e-05
 Reference value :  1.20310e-05
 Reference value :  1.20363e-05
 Reference value :  1.20411e-05
 Reference value :  1.20477e-05
 Reference value :  1.20570e-05
 Reference value :  1.20730e-05
 Reference value :  1.21260e-05
 Reference value :  1.22903e-05
 Reference value :  1.30005e-05
 Reference value :  1.30009e-05
 Reference value :  1.30011e-05
 Reference value :  1.30018e-05
 Reference value :  1.30034e-05
 Reference value :  1.30048e-05
 Reference value :  1.30063e-05
 Reference value :  1.30081e-05
 Reference value :  1.30185e-05
 Reference value :  1.30619e-05
 Reference value :  1.37060e-05
 Reference value :  1.40002e-05
 Reference value :  1.40005e-05
 Reference value :  1.40007e-05
 Reference value :  1.40014e-05
 Reference value :  1.40023e-05
 Reference value :  1.40040e-05
 Reference value :  1.40053e-05
 Reference value :  1.40079e-05
 Reference value :  1.40097e-05
 Reference value :  1.40131e-05
 Reference value :  1.40297e-05
 Reference value :  1.43067e-05
 Reference value :  1.50005e-05
 Reference value :  1.50007e-05
 Reference value :  1.50010e-05
 Reference value :  1.50015e-05
 Reference value :  1.50028e-05
 Reference value :  1.50041e-05
 Reference value :  1.50048e-05
 Reference value :  1.50061e-05
 Reference value :  1.50076e-05
 Reference value :  1.50104e-05
 Reference value :  1.50162e-05
 Reference value :  1.50336e-05
 Reference value :  1.50872e-05
 Reference value :  1.52947e-05
 Reference value :  1.60000e-05
 Reference value :  1.60005e-05
 Reference value :  1.60006e-05
 Reference value :  1.60010e-05
 Reference value :  1.60014e-05
 Reference value :  1.60023e-05
 Reference value :  1.60034e-05
 Reference value :  1.60040e-05
 Reference value :  1.60053e-05
 Reference value :  1.60065e-05
 Reference value :  1.60071e-05
 Reference value :  1.60103e-05
 Reference value :  1.60138e-05
 Reference value :  1.60155e-05
 Reference value :  1.60167e-05
 Reference value :  1.60180e-05
 Reference value :  1.60191e-05
 Reference value :  1.60216e-05
 Reference value :  1.60253e-05
 Reference value :  1.60340e-05
 Reference value :  1.60522e-05
 Reference value :  1.60705e-05
 Reference value :  1.60771e-05
 Reference value :  1.60900e-05
 Reference value :  1.61041e-05
 Reference value :  1.61237e-05
 Reference value :  1.61462e-05
 Reference value :  1.61542e-05
 Reference value :  1.61689e-05
 Reference value :  1.61898e-05
 Reference value :  1.62316e-05
 Reference value :  1.62948e-05
 Reference value :  1.64758e-05
 Reference value :  1.70005e-05
 Reference value :  1.70006e-05
 Reference value :  1.70009e-05
 Reference value :  1.70010e-05
 Reference value :  1.70011e-05
 Reference value :  1.70014e-05
 Reference value :  1.70021e-05
 Reference value :  1.70026e-05
 Reference value :  1.70031e-05
 Reference value :  1.70037e-05
 Reference value :  1.70046e-05
 Reference value :  1.70052e-05
 Reference value :  1.70066e-05
 Reference value :  1.70083e-05
 Reference value :  1.70122e-05
 Reference value :  1.70208e-05
 Reference value :  1.70505e-05
 Reference value :  1.71589e-05
 Reference value :  1.75926e-05
 Reference value :  1.80000e-05
 Reference value :  1.80002e-05
 Reference value :  1.80005e-05
 Reference value :  1.80005e-05
 Reference value :  1.80007e-05
 Reference value :  1.80016e-05
 Reference value :  1.80027e-05
 Reference value :  1.80033e-05
 Reference value :  1.80046e-05
 Reference value :  1.80061e-05
 Reference value :  1.80072e-05
 Reference value :  1.80079e-05
 Reference value :  1.80088e-05
 Reference value :  1.80098e-05
 Reference value :  1.80119e-05
 Reference value :  1.80132e-05
 Reference value :  1.80171e-05
 Reference value :  1.80267e-05
 Reference value :  1.80542e-05
 Reference value :  1.81569e-05
 Reference value :  1.85677e-05
 Reference value :  1.90006e-05
 Reference value :  1.90009e-05
 Reference value :  1.90010e-05
 Reference value :  1.90012e-05
 Reference value :  1.90014e-05
 Reference value :  1.90021e-05
 Reference value :  1.90026e-05
 Reference value :  1.90037e-05
 Reference value :  1.90052e-05
 Reference value :  1.90059e-05
 Reference value :  1.90065e-05
 Reference value :  1.90081e-05
 Reference value :  1.90111e-05
 Reference value :  1.90274e-05
 Reference value :  1.90799e-05
 Reference value :  1.92901e-05
 Reference value :  2.00000e-05
 Reference value :  2.00002e-05
 Reference value :  2.00005e-05
 Reference value :  2.00006e-05
 Reference value :  2.00007e-05
 Reference value :  2.00016e-05
 Reference value :  2.00027e-05
 Reference value :  2.00033e-05
 Reference value :  2.00046e-05
 Reference value :  2.00052e-05
 Reference value :  2.00064e-05
 Reference value :  2.00078e-05
 Reference value :  2.00102e-05
 Reference value :  2.00121e-05
 Reference value :  2.00136e-05
 Reference value :  2.00163e-05
 Reference value :  2.00174e-05
 Reference value :  2.00197e-05
 Reference value :  2.00211e-05
 Reference value :  2.00248e-05
 Reference value :  2.00274e-05
 Reference value :  2.00441e-05
 Reference value :  2.00507e-05
 Reference value :  2.00556e-05
 Reference value :  2.00658e-05
 Reference value :  2.00787e-05
 Reference value :  2.01062e-05
 Reference value :  2.01883e-05
 Reference value :  2.03568e-05
 Reference value :  2.07843e-05
 Reference value :  2.10005e-05
 Reference value :  2.10006e-05
 Reference value :  2.10010e-05
 Reference value :  2.10011e-05
 Reference value :  2.10014e-05
 Reference value :  2.10021e-05
 Reference value :  2.10026e-05
 Reference value :  2.10031e-05
 Reference value :  2.10046e-05
 Reference value :  2.10052e-05
 Reference value :  2.10066e-05
 Reference value :  2.10084e-05
 Reference value :  2.10123e-05
 Reference value :  2.10212e-05
 Reference value :  2.10896e-05
 Reference value :  2.11303e-05
 Reference value :  2.11590e-05
 Reference value :  2.12225e-05
 Reference value :  2.14623e-05
 Reference value :  2.16017e-05
 Reference value :  2.19388e-05
 Reference value :  2.20001e-05
 Reference value :  2.20005e-05
 Reference value :  2.20006e-05
 Reference value :  2.20010e-05
 Reference value :  2.20022e-05
 Reference value :  2.20027e-05
 Reference value :  2.20040e-05
 Reference value :  2.20054e-05
 Reference value :  2.20072e-05
 Reference value :  2.20079e-05
 Reference value :  2.20098e-05
 Reference value :  2.20119e-05
 Reference value :  2.20132e-05
 Reference value :  2.20171e-05
 Reference value :  2.20267e-05
 Reference value :  2.20540e-05
 Reference value :  2.21561e-05
 Reference value :  2.25642e-05
 Reference value :  2.30005e-05
 Reference value :  2.30008e-05
 Reference value :  2.30010e-05
 Reference value :  2.30011e-05
 Reference value :  2.30014e-05
 Reference value :  2.30021e-05
 Reference value :  2.30026e-05
 Reference value :  2.30037e-05
 Reference value :  2.30052e-05
 Reference value :  2.30059e-05
 Reference value :  2.30065e-05
 Reference value :  2.30081e-05
 Reference value :  2.30111e-05
 Reference value :  2.30183e-05
 Reference value :  2.30797e-05
 Reference value :  2.31496e-05
 Reference value :  2.35688e-05
 Reference value :  2.40004e-05
 Reference value :  2.40005e-05
 Reference value :  2.40007e-05
 Reference value :  2.40016e-05
 Reference value :  2.40027e-05
 Reference value :  2.40040e-05
 Reference value :  2.40046e-05
 Reference value :  2.40052e-05
 Reference value :  2.40064e-05
 Reference value :  2.40070e-05
 Reference value :  2.40086e-05
 Reference value :  2.40121e-05
 Reference value :  2.40136e-05
 Reference value :  2.40152e-05
 Reference value :  2.40163e-05
 Reference value :  2.40185e-05
 Reference value :  2.40211e-05
 Reference value :  2.40248e-05
 Reference value :  2.40325e-05
 Reference value :  2.40378e-05
 Reference value :  2.40457e-05
 Reference value :  2.40500e-05
 Reference value :  2.40546e-05
 Reference value :  2.40599e-05
 Reference value :  2.40718e-05
 Reference value :  2.40949e-05
 Reference value :  2.42206e-05
 Reference value :  2.45000e-05
 Reference value :  2.50005e-05
 Reference value :  2.50008e-05
 Reference value :  2.50011e-05
 Reference value :  2.50014e-05
 Reference value :  2.50021e-05
 Reference value :  2.50031e-05
 Reference value :  2.50046e-05
 Reference value :  2.50052e-05
 Reference value :  2.50067e-05
 Reference value :  2.50084e-05
 Reference value :  2.50123e-05
 Reference value :  2.50158e-05
 Reference value :  2.50213e-05
 Reference value :  2.50521e-05
 Reference value :  2.50899e-05
 Reference value :  2.51655e-05
 Reference value :  2.60001e-05
 Reference value :  2.60004e-05
 Reference value :  2.60005e-05
 Reference value :  2.60007e-05
 Reference value :  2.60016e-05
 Reference value :  2.60022e-05
 Reference value :  2.60027e-05
 Reference value :  2.60040e-05
 Reference value :  2.60055e-05
 Reference value :  2.60074e-05
 Reference value :  2.60082e-05
 Reference value :  2.60100e-05
 Reference value :  2.60112e-05
 Reference value :  2.60138e-05
 Reference value :  2.60193e-05
 Reference value :  2.60561e-05
 Reference value :  2.60964e-05
 Reference value :  2.63381e-05
 Reference value :  2.70005e-05
 Reference value :  2.70007e-05
 Reference value :  2.70009e-05
 Reference value :  2.70010e-05
 Reference value :  2.70011e-05
 Reference value :  2.70014e-05
 Reference value :  2.70021e-05
 Reference value :  2.70026e-05
 Reference value :  2.70037e-05
 Reference value :  2.70046e-05
 Reference value :  2.70052e-05
 Reference value :  2.70065e-05
 Reference value :  2.70072e-05
 Reference value :  2.70081e-05
 Reference value :  2.70091e-05
 Reference value :  2.70112e-05
 Reference value :  2.70129e-05
 Reference value :  2.70176e-05
 Reference value :  2.70289e-05
 Reference value :  2.70621e-05
 Reference value :  2.71900e-05
 Reference value :  2.77015e-05
 Reference value :  2.80001e-05
 Reference value :  2.80005e-05
 Reference value :  2.80007e-05
 Reference value :  2.80016e-05
 Reference value :  2.80027e-05
 Reference value :  2.80040e-05
 Reference value :  2.80046e-05
 Reference value :  2.80052e-05
 Reference value :  2.80064e-05
 Reference value :  2.80077e-05
 Reference value :  2.80097e-05
 Reference value :  2.80120e-05
 Reference value :  2.80143e-05
 Reference value :  2.80153e-05
 Reference value :  2.80162e-05
 Reference value :  2.80185e-05
 Reference value :  2.80209e-05
 Reference value :  2.80240e-05
 Reference value :  2.80342e-05
 Reference value :  2.80784e-05
 Reference value :  2.82658e-05
 Reference value :  2.89558e-05
 Reference value :  2.90007e-05
 Reference value :  2.90010e-05
 Reference value :  2.90010e-05
 Reference value :  2.90012e-05
 Reference value :  2.90014e-05
 Reference value :  2.90021e-05
 Reference value :  2.90026e-05
 Reference value :  2.90037e-05
 Reference value :  2.90046e-05
 Reference value :  2.90059e-05
 Reference value :  2.90066e-05
 Reference value :  2.90083e-05
 Reference value :  2.90154e-05
 Reference value :  2.90314e-05
 Reference value :  2.91580e-05
 Reference value :  2.95889e-05
 Reference value :  3.00001e-05
 Reference value :  3.00004e-05
 Reference value :  3.00005e-05
 Reference value :  3.00007e-05
 Reference value :  3.00016e-05
 Reference value :  3.00022e-05
 Reference value :  3.00027e-05
 Reference value :  3.00040e-05
 Reference value :  3.00047e-05
 Reference value :  3.00063e-05
 Reference value :  3.00074e-05
 Reference value :  3.00082e-05
 Reference value :  3.00100e-05
 Reference value :  3.00112e-05
 Reference value :  3.00138e-05
 Reference value :  3.00246e-05
 Reference value :  3.00872e-05
 Reference value :  3.02992e-05
 Reference value :  3.10005e-05
 Reference value :  3.10005e-05
 Reference value :  3.10008e-05
 Reference value :  3.10010e-05
 Reference value :  3.10012e-05
 Reference value :  3.10014e-05
 Reference value :  3.10021e-05
 Reference value :  3.10026e-05
 Reference value :  3.10037e-05
 Reference value :  3.10046e-05
 Reference value :  3.10052e-05
 Reference value :  3.10059e-05
 Reference value :  3.10065e-05
 Reference value :  3.10081e-05
 Reference value :  3.10101e-05
 Reference value :  3.10112e-05
 Reference value :  3.10145e-05
 Reference value :  3.10214e-05
 Reference value :  3.11048e-05
 Reference value :  3.17024e-05
 Reference value :  3.20000e-05
 Reference value :  3.20001e-05
 Reference value :  3.20005e-05
 Reference value :  3.20006e-05
 Reference value :  3.20010e-05
 Reference value :  3.20022e-05
 Reference value :  3.20027e-05
 Reference value :  3.20040e-05
 Reference value :  3.20052e-05
 Reference value :  3.20064e-05
 Reference value :  3.20077e-05
 Reference value :  3.20094e-05
 Reference value :  3.20111e-05
 Reference value :  3.20129e-05
 Reference value :  3.20159e-05
 Reference value :  3.20437e-05
 Reference value :  3.21257e-05
 Reference value :  3.22469e-05
 Reference value :  3.28010e-05
 Reference value :  3.30010e-05
 Reference value :  3.30015e-05
 Reference value :  3.30027e-05
 Reference value :  3.30047e-05
 Reference value :  3.30090e-05
 Reference value :  3.30639e-05
No. of Data Rows : 1303
ngspice-44 done
