
Note: Compatibility modes selected: hs a


Circuit: ** sch_path: /home/ece/cace/sar-adc-using-sky130-pdk/runs/run_2025-09-13_00-54-40/parameters/dnl/run_2/sar_output_dnl.sch

option SCALE: Scale is set to 1e-06 for instance and model parameters
option SCALE: Scale is set to 1e-06 for instance and model parameters
option SCALE: Scale is set to 1e-06 for instance and model parameters
option SCALE: Scale is set to 1e-06 for instance and model parameters
Doing analysis at TEMP = 27.000000 and TNOM = 27.000000

Using KLU as Direct Linear Solver
Operating point simulation skipped by 'uic',
  now using transient initial conditions.
 Reference value :  1.00000e-12
 Reference value :  1.19507e-12
 Reference value :  2.21079e-12
 Reference value :  6.37035e-12
 Reference value :  3.42701e-11
 Reference value :  1.05470e-10
 Reference value :  2.69574e-10
 Reference value :  6.81918e-10
 Reference value :  1.35632e-09
 Reference value :  2.50492e-09
 Reference value :  4.07751e-09
 Reference value :  5.07432e-09
 Reference value :  6.09994e-09
 Reference value :  7.40602e-09
 Reference value :  8.88034e-09
 Reference value :  1.07730e-08
 Reference value :  1.33549e-08
 Reference value :  1.94750e-08
 Reference value :  2.33871e-08
 Reference value :  3.14520e-08
 Reference value :  4.01646e-08
 Reference value :  6.67186e-08
 Reference value :  2.06675e-07
 Reference value :  2.50130e-07
 Reference value :  2.50208e-07
 Reference value :  2.50311e-07
 Reference value :  2.50680e-07
 Reference value :  2.51695e-07
 Reference value :  2.53257e-07
 Reference value :  2.54260e-07
 Reference value :  2.56197e-07
 Reference value :  2.61162e-07
 Reference value :  2.80562e-07
 Reference value :  5.00000e-07
 Reference value :  5.00070e-07
 Reference value :  5.00124e-07
 Reference value :  5.00338e-07
 Reference value :  5.00827e-07
 Reference value :  5.01575e-07
 Reference value :  5.02907e-07
 Reference value :  5.04757e-07
 Reference value :  5.06612e-07
 Reference value :  5.09008e-07
 Reference value :  5.11637e-07
 Reference value :  5.14501e-07
 Reference value :  5.28208e-07
 Reference value :  7.34339e-07
 Reference value :  7.50170e-07
 Reference value :  7.50256e-07
 Reference value :  7.51397e-07
 Reference value :  7.52994e-07
 Reference value :  7.53976e-07
 Reference value :  7.55035e-07
 Reference value :  7.56554e-07
 Reference value :  7.69353e-07
 Reference value :  8.53123e-07
 Reference value :  1.00001e-06
 Reference value :  1.00011e-06
 Reference value :  1.00034e-06
 Reference value :  1.00119e-06
 Reference value :  1.00242e-06
 Reference value :  1.00341e-06
 Reference value :  1.00450e-06
 Reference value :  1.00554e-06
 Reference value :  1.00709e-06
 Reference value :  1.00996e-06
 Reference value :  1.01223e-06
 Reference value :  1.01429e-06
 Reference value :  1.01627e-06
 Reference value :  1.03638e-06
 Reference value :  1.10866e-06
 Reference value :  1.14420e-06
 Reference value :  1.18904e-06
 Reference value :  1.20820e-06
 Reference value :  1.25011e-06
 Reference value :  1.25021e-06
 Reference value :  1.25032e-06
 Reference value :  1.25098e-06
 Reference value :  1.25186e-06
 Reference value :  1.25300e-06
 Reference value :  1.25395e-06
 Reference value :  1.25527e-06
 Reference value :  1.25875e-06
 Reference value :  1.31329e-06
 Reference value :  1.50001e-06
 Reference value :  1.50011e-06
 Reference value :  1.50022e-06
 Reference value :  1.50083e-06
 Reference value :  1.50154e-06
 Reference value :  1.50282e-06
 Reference value :  1.50388e-06
 Reference value :  1.50598e-06
 Reference value :  1.50749e-06
 Reference value :  1.50925e-06
 Reference value :  1.51147e-06
 Reference value :  1.52261e-06
 Reference value :  1.58322e-06
 Reference value :  1.75011e-06
 Reference value :  1.75021e-06
 Reference value :  1.75045e-06
 Reference value :  1.75140e-06
 Reference value :  1.75299e-06
 Reference value :  1.75345e-06
 Reference value :  1.75448e-06
 Reference value :  1.75580e-06
 Reference value :  1.75838e-06
 Reference value :  1.76109e-06
 Reference value :  1.77517e-06
 Reference value :  1.88219e-06
 Reference value :  2.00001e-06
 Reference value :  2.00007e-06
 Reference value :  2.00011e-06
 Reference value :  2.00016e-06
 Reference value :  2.00034e-06
 Reference value :  2.00083e-06
 Reference value :  2.00158e-06
 Reference value :  2.00242e-06
 Reference value :  2.00290e-06
 Reference value :  2.00390e-06
 Reference value :  2.00484e-06
 Reference value :  2.00593e-06
 Reference value :  2.00758e-06
 Reference value :  2.00933e-06
 Reference value :  2.01017e-06
 Reference value :  2.01113e-06
 Reference value :  2.01191e-06
 Reference value :  2.01353e-06
 Reference value :  2.01529e-06
 Reference value :  2.01723e-06
 Reference value :  2.02049e-06
 Reference value :  2.03317e-06
 Reference value :  2.05309e-06
 Reference value :  2.06148e-06
 Reference value :  2.06752e-06
 Reference value :  2.07700e-06
 Reference value :  2.08975e-06
 Reference value :  2.11067e-06
 Reference value :  2.15271e-06
 Reference value :  2.25010e-06
 Reference value :  2.25013e-06
 Reference value :  2.25021e-06
 Reference value :  2.25045e-06
 Reference value :  2.25140e-06
 Reference value :  2.25230e-06
 Reference value :  2.25345e-06
 Reference value :  2.25461e-06
 Reference value :  2.25599e-06
 Reference value :  2.26166e-06
 Reference value :  2.28704e-06
 Reference value :  2.37403e-06
 Reference value :  2.50001e-06
 Reference value :  2.50007e-06
 Reference value :  2.50011e-06
 Reference value :  2.50022e-06
 Reference value :  2.50052e-06
 Reference value :  2.50083e-06
 Reference value :  2.50158e-06
 Reference value :  2.50242e-06
 Reference value :  2.50290e-06
 Reference value :  2.50399e-06
 Reference value :  2.50552e-06
 Reference value :  2.50616e-06
 Reference value :  2.50865e-06
 Reference value :  2.51556e-06
 Reference value :  2.65819e-06
 Reference value :  2.75017e-06
 Reference value :  2.75026e-06
 Reference value :  2.75098e-06
 Reference value :  2.75186e-06
 Reference value :  2.75299e-06
 Reference value :  2.75397e-06
 Reference value :  2.75502e-06
 Reference value :  2.75661e-06
 Reference value :  2.76989e-06
 Reference value :  2.85768e-06
 Reference value :  3.00001e-06
 Reference value :  3.00010e-06
 Reference value :  3.00012e-06
 Reference value :  3.00034e-06
 Reference value :  3.00083e-06
 Reference value :  3.00158e-06
 Reference value :  3.00289e-06
 Reference value :  3.00450e-06
 Reference value :  3.00554e-06
 Reference value :  3.00847e-06
 Reference value :  3.01120e-06
 Reference value :  3.01323e-06
 Reference value :  3.01525e-06
 Reference value :  3.01913e-06
 Reference value :  3.02880e-06
 Reference value :  3.06565e-06
 Reference value :  3.08911e-06
 Reference value :  3.10748e-06
 Reference value :  3.13633e-06
 Reference value :  3.16659e-06
 Reference value :  3.18402e-06
 Reference value :  3.19720e-06
 Reference value :  3.20472e-06
 Reference value :  3.22166e-06
 Reference value :  3.25011e-06
 Reference value :  3.25020e-06
 Reference value :  3.25032e-06
 Reference value :  3.25098e-06
 Reference value :  3.25186e-06
 Reference value :  3.25299e-06
 Reference value :  3.25345e-06
 Reference value :  3.25461e-06
 Reference value :  3.25741e-06
 Reference value :  3.27243e-06
 Reference value :  3.48834e-06
 Reference value :  3.50003e-06
 Reference value :  3.50011e-06
 Reference value :  3.50034e-06
 Reference value :  3.50119e-06
 Reference value :  3.50201e-06
 Reference value :  3.50290e-06
 Reference value :  3.50474e-06
 Reference value :  3.50616e-06
 Reference value :  3.50771e-06
 Reference value :  3.51086e-06
 Reference value :  3.52989e-06
 Reference value :  3.75010e-06
 Reference value :  3.75017e-06
 Reference value :  3.75045e-06
 Reference value :  3.75140e-06
 Reference value :  3.75299e-06
 Reference value :  3.75344e-06
 Reference value :  3.75448e-06
 Reference value :  3.75580e-06
 Reference value :  3.76029e-06
 Reference value :  3.80765e-06
 Reference value :  4.00001e-06
 Reference value :  4.00011e-06
 Reference value :  4.00034e-06
 Reference value :  4.00119e-06
 Reference value :  4.00242e-06
 Reference value :  4.00341e-06
 Reference value :  4.00500e-06
 Reference value :  4.00847e-06
 Reference value :  4.01120e-06
 Reference value :  4.01323e-06
 Reference value :  4.01524e-06
 Reference value :  4.01913e-06
 Reference value :  4.02775e-06
 Reference value :  4.03681e-06
 Reference value :  4.04462e-06
 Reference value :  4.05301e-06
 Reference value :  4.06947e-06
 Reference value :  4.19202e-06
 Reference value :  4.25017e-06
 Reference value :  4.25026e-06
 Reference value :  4.25069e-06
 Reference value :  4.25140e-06
 Reference value :  4.25299e-06
 Reference value :  4.25395e-06
 Reference value :  4.25595e-06
 Reference value :  4.26148e-06
 Reference value :  4.28577e-06
 Reference value :  4.48015e-06
 Reference value :  4.50003e-06
 Reference value :  4.50011e-06
 Reference value :  4.50022e-06
 Reference value :  4.50083e-06
 Reference value :  4.50154e-06
 Reference value :  4.50235e-06
 Reference value :  4.50333e-06
 Reference value :  4.50536e-06
 Reference value :  4.50598e-06
 Reference value :  4.50749e-06
 Reference value :  4.50924e-06
 Reference value :  4.51028e-06
 Reference value :  4.51673e-06
 Reference value :  4.54802e-06
 Reference value :  4.64494e-06
 Reference value :  4.75011e-06
 Reference value :  4.75020e-06
 Reference value :  4.75026e-06
 Reference value :  4.75098e-06
 Reference value :  4.75186e-06
 Reference value :  4.75299e-06
 Reference value :  4.75344e-06
 Reference value :  4.75448e-06
 Reference value :  4.75579e-06
 Reference value :  4.75751e-06
 Reference value :  4.75964e-06
 Reference value :  4.77489e-06
 Reference value :  4.87982e-06
 Reference value :  5.00001e-06
 Reference value :  5.00010e-06
 Reference value :  5.00016e-06
 Reference value :  5.00052e-06
 Reference value :  5.00158e-06
 Reference value :  5.00290e-06
 Reference value :  5.00390e-06
 Reference value :  5.00484e-06
 Reference value :  5.00593e-06
 Reference value :  5.00758e-06
 Reference value :  5.00928e-06
 Reference value :  5.01111e-06
 Reference value :  5.01269e-06
 Reference value :  5.01355e-06
 Reference value :  5.01532e-06
 Reference value :  5.01630e-06
 Reference value :  5.02077e-06
 Reference value :  5.02614e-06
 Reference value :  5.03295e-06
 Reference value :  5.03764e-06
 Reference value :  5.04557e-06
 Reference value :  5.06464e-06
 Reference value :  5.12176e-06
 Reference value :  5.24269e-06
 Reference value :  5.25013e-06
 Reference value :  5.25026e-06
 Reference value :  5.25098e-06
 Reference value :  5.25186e-06
 Reference value :  5.25345e-06
 Reference value :  5.25460e-06
 Reference value :  5.25740e-06
 Reference value :  5.26519e-06
 Reference value :  5.31525e-06
 Reference value :  5.50000e-06
 Reference value :  5.50007e-06
 Reference value :  5.50012e-06
 Reference value :  5.50034e-06
 Reference value :  5.50083e-06
 Reference value :  5.50158e-06
 Reference value :  5.50242e-06
 Reference value :  5.50342e-06
 Reference value :  5.50474e-06
 Reference value :  5.50616e-06
 Reference value :  5.50771e-06
 Reference value :  5.51086e-06
 Reference value :  5.52051e-06
 Reference value :  5.58269e-06
 Reference value :  5.75010e-06
 Reference value :  5.75013e-06
 Reference value :  5.75020e-06
 Reference value :  5.75026e-06
 Reference value :  5.75069e-06
 Reference value :  5.75140e-06
 Reference value :  5.75299e-06
 Reference value :  5.75344e-06
 Reference value :  5.75448e-06
 Reference value :  5.75579e-06
 Reference value :  5.76026e-06
 Reference value :  5.78224e-06
 Reference value :  5.95642e-06
 Reference value :  6.00003e-06
 Reference value :  6.00011e-06
 Reference value :  6.00022e-06
 Reference value :  6.00083e-06
 Reference value :  6.00201e-06
 Reference value :  6.00289e-06
 Reference value :  6.00396e-06
 Reference value :  6.00500e-06
 Reference value :  6.00631e-06
 Reference value :  6.00847e-06
 Reference value :  6.01120e-06
 Reference value :  6.01322e-06
 Reference value :  6.01625e-06
 Reference value :  6.02874e-06
 Reference value :  6.04163e-06
 Reference value :  6.05804e-06
 Reference value :  6.09616e-06
 Reference value :  6.25010e-06
 Reference value :  6.25020e-06
 Reference value :  6.25026e-06
 Reference value :  6.25069e-06
 Reference value :  6.25140e-06
 Reference value :  6.25299e-06
 Reference value :  6.25455e-06
 Reference value :  6.25878e-06
 Reference value :  6.36889e-06
 Reference value :  6.50007e-06
 Reference value :  6.50016e-06
 Reference value :  6.50083e-06
 Reference value :  6.50154e-06
 Reference value :  6.50282e-06
 Reference value :  6.50536e-06
 Reference value :  6.50664e-06
 Reference value :  6.50924e-06
 Reference value :  6.51669e-06
 Reference value :  6.64334e-06
 Reference value :  6.75020e-06
 Reference value :  6.75069e-06
 Reference value :  6.75186e-06
 Reference value :  6.75344e-06
 Reference value :  6.75502e-06
 Reference value :  6.75661e-06
 Reference value :  6.75963e-06
 Reference value :  6.77484e-06
 Reference value :  6.99870e-06
 Reference value :  7.00003e-06
 Reference value :  7.00011e-06
 Reference value :  7.00022e-06
 Reference value :  7.00083e-06
 Reference value :  7.00158e-06
 Reference value :  7.00290e-06
 Reference value :  7.00390e-06
 Reference value :  7.00534e-06
 Reference value :  7.00758e-06
 Reference value :  7.01016e-06
 Reference value :  7.01187e-06
 Reference value :  7.01441e-06
 Reference value :  7.01743e-06
 Reference value :  7.02774e-06
 Reference value :  7.10010e-06
 Reference value :  7.25011e-06
 Reference value :  7.25021e-06
 Reference value :  7.25045e-06
 Reference value :  7.25140e-06
 Reference value :  7.25299e-06
 Reference value :  7.25396e-06
 Reference value :  7.25601e-06
 Reference value :  7.26177e-06
 Reference value :  7.28750e-06
 Reference value :  7.37573e-06
 Reference value :  7.50000e-06
 Reference value :  7.50003e-06
 Reference value :  7.50011e-06
 Reference value :  7.50022e-06
 Reference value :  7.50083e-06
 Reference value :  7.50154e-06
 Reference value :  7.50235e-06
 Reference value :  7.50282e-06
 Reference value :  7.50333e-06
 Reference value :  7.50464e-06
 Reference value :  7.50536e-06
 Reference value :  7.50598e-06
 Reference value :  7.50749e-06
 Reference value :  7.51028e-06
 Reference value :  7.53157e-06
 Reference value :  7.75011e-06
 Reference value :  7.75021e-06
 Reference value :  7.75045e-06
 Reference value :  7.75139e-06
 Reference value :  7.75298e-06
 Reference value :  7.75397e-06
 Reference value :  7.75578e-06
 Reference value :  7.75960e-06
 Reference value :  7.78922e-06
 Reference value :  8.00007e-06
 Reference value :  8.00022e-06
 Reference value :  8.00083e-06
 Reference value :  8.00201e-06
 Reference value :  8.00290e-06
 Reference value :  8.00389e-06
 Reference value :  8.00484e-06
 Reference value :  8.00663e-06
 Reference value :  8.00902e-06
 Reference value :  8.01283e-06
 Reference value :  8.03065e-06
 Reference value :  8.05670e-06
 Reference value :  8.09516e-06
 Reference value :  8.25011e-06
 Reference value :  8.25022e-06
 Reference value :  8.25099e-06
 Reference value :  8.25228e-06
 Reference value :  8.25452e-06
 Reference value :  8.25768e-06
 Reference value :  8.26628e-06
 Reference value :  8.32170e-06
 Reference value :  8.50000e-06
 Reference value :  8.50000e-06
 Reference value :  8.50000e-06
 Reference value :  8.50001e-06
 Reference value :  8.50008e-06
 Reference value :  8.50012e-06
 Reference value :  8.50044e-06
 Reference value :  8.50115e-06
 Reference value :  8.50197e-06
 Reference value :  8.50292e-06
 Reference value :  8.50401e-06
 Reference value :  8.50446e-06
 Reference value :  8.50617e-06
 Reference value :  8.51731e-06
 Reference value :  8.52239e-06
 Reference value :  8.52625e-06
 Reference value :  8.52913e-06
 Reference value :  8.53173e-06
 Reference value :  8.53380e-06
 Reference value :  8.53795e-06
 Reference value :  8.54264e-06
 Reference value :  8.54949e-06
 Reference value :  8.56838e-06
 Reference value :  8.62182e-06
 Reference value :  8.75011e-06
 Reference value :  8.75021e-06
 Reference value :  8.75045e-06
 Reference value :  8.75098e-06
 Reference value :  8.75139e-06
 Reference value :  8.75229e-06
 Reference value :  8.75342e-06
 Reference value :  8.75516e-06
 Reference value :  8.76478e-06
 Reference value :  8.97209e-06
 Reference value :  9.00010e-06
 Reference value :  9.00034e-06
 Reference value :  9.00158e-06
 Reference value :  9.00289e-06
 Reference value :  9.00397e-06
 Reference value :  9.00655e-06
 Reference value :  9.00889e-06
 Reference value :  9.01138e-06
 Reference value :  9.01260e-06
 Reference value :  9.01565e-06
 Reference value :  9.02585e-06
 Reference value :  9.14069e-06
 Reference value :  9.25017e-06
 Reference value :  9.25032e-06
 Reference value :  9.25098e-06
 Reference value :  9.25186e-06
 Reference value :  9.25344e-06
 Reference value :  9.25447e-06
 Reference value :  9.25578e-06
 Reference value :  9.26352e-06
 Reference value :  9.30694e-06
 Reference value :  9.50001e-06
 Reference value :  9.50010e-06
 Reference value :  9.50022e-06
 Reference value :  9.50083e-06
 Reference value :  9.50158e-06
 Reference value :  9.50289e-06
 Reference value :  9.50450e-06
 Reference value :  9.50554e-06
 Reference value :  9.50845e-06
 Reference value :  9.51119e-06
 Reference value :  9.51324e-06
 Reference value :  9.51526e-06
 Reference value :  9.51918e-06
 Reference value :  9.53660e-06
 Reference value :  9.60972e-06
 Reference value :  9.64535e-06
 Reference value :  9.67992e-06
 Reference value :  9.69030e-06
 Reference value :  9.70946e-06
 Reference value :  9.72915e-06
 Reference value :  9.75010e-06
 Reference value :  9.75013e-06
 Reference value :  9.75020e-06
 Reference value :  9.75026e-06
 Reference value :  9.75045e-06
 Reference value :  9.75098e-06
 Reference value :  9.75140e-06
 Reference value :  9.75229e-06
 Reference value :  9.75299e-06
 Reference value :  9.75343e-06
 Reference value :  9.75453e-06
 Reference value :  9.75592e-06
 Reference value :  9.75872e-06
 Reference value :  9.77157e-06
 Reference value :  9.86662e-06
 Reference value :  1.00000e-05
 Reference value :  1.00001e-05
 Reference value :  1.00001e-05
 Reference value :  1.00002e-05
 Reference value :  1.00005e-05
 Reference value :  1.00012e-05
 Reference value :  1.00019e-05
 Reference value :  1.00028e-05
 Reference value :  1.00046e-05
 Reference value :  1.00060e-05
 Reference value :  1.00075e-05
 Reference value :  1.00092e-05
 Reference value :  1.00103e-05
 Reference value :  1.00222e-05
 Reference value :  1.00797e-05
 Reference value :  1.02501e-05
 Reference value :  1.02502e-05
 Reference value :  1.02503e-05
 Reference value :  1.02510e-05
 Reference value :  1.02519e-05
 Reference value :  1.02534e-05
 Reference value :  1.02545e-05
 Reference value :  1.02558e-05
 Reference value :  1.02575e-05
 Reference value :  1.02596e-05
 Reference value :  1.02674e-05
 Reference value :  1.03198e-05
 Reference value :  1.05000e-05
 Reference value :  1.05000e-05
 Reference value :  1.05001e-05
 Reference value :  1.05001e-05
 Reference value :  1.05002e-05
 Reference value :  1.05005e-05
 Reference value :  1.05008e-05
 Reference value :  1.05016e-05
 Reference value :  1.05024e-05
 Reference value :  1.05029e-05
 Reference value :  1.05039e-05
 Reference value :  1.05048e-05
 Reference value :  1.05059e-05
 Reference value :  1.05076e-05
 Reference value :  1.05084e-05
 Reference value :  1.05093e-05
 Reference value :  1.05102e-05
 Reference value :  1.05119e-05
 Reference value :  1.05136e-05
 Reference value :  1.05155e-05
 Reference value :  1.05177e-05
 Reference value :  1.05253e-05
 Reference value :  1.05362e-05
 Reference value :  1.05581e-05
 Reference value :  1.05664e-05
 Reference value :  1.05703e-05
 Reference value :  1.05778e-05
 Reference value :  1.05882e-05
 Reference value :  1.06116e-05
 Reference value :  1.06675e-05
 Reference value :  1.07501e-05
 Reference value :  1.07502e-05
 Reference value :  1.07502e-05
 Reference value :  1.07503e-05
 Reference value :  1.07507e-05
 Reference value :  1.07514e-05
 Reference value :  1.07523e-05
 Reference value :  1.07530e-05
 Reference value :  1.07535e-05
 Reference value :  1.07546e-05
 Reference value :  1.07560e-05
 Reference value :  1.07589e-05
 Reference value :  1.07652e-05
 Reference value :  1.08154e-05
 Reference value :  1.10000e-05
 Reference value :  1.10000e-05
 Reference value :  1.10001e-05
 Reference value :  1.10001e-05
 Reference value :  1.10002e-05
 Reference value :  1.10005e-05
 Reference value :  1.10008e-05
 Reference value :  1.10016e-05
 Reference value :  1.10024e-05
 Reference value :  1.10029e-05
 Reference value :  1.10040e-05
 Reference value :  1.10055e-05
 Reference value :  1.10062e-05
 Reference value :  1.10077e-05
 Reference value :  1.10096e-05
 Reference value :  1.10155e-05
 Reference value :  1.10474e-05
 Reference value :  1.11539e-05
 Reference value :  1.12501e-05
 Reference value :  1.12502e-05
 Reference value :  1.12502e-05
 Reference value :  1.12504e-05
 Reference value :  1.12510e-05
 Reference value :  1.12514e-05
 Reference value :  1.12523e-05
 Reference value :  1.12530e-05
 Reference value :  1.12534e-05
 Reference value :  1.12540e-05
 Reference value :  1.12545e-05
 Reference value :  1.12558e-05
 Reference value :  1.12603e-05
 Reference value :  1.12822e-05
 Reference value :  1.14557e-05
 Reference value :  1.15000e-05
 Reference value :  1.15001e-05
 Reference value :  1.15002e-05
 Reference value :  1.15003e-05
 Reference value :  1.15008e-05
 Reference value :  1.15016e-05
 Reference value :  1.15024e-05
 Reference value :  1.15029e-05
 Reference value :  1.15040e-05
 Reference value :  1.15050e-05
 Reference value :  1.15071e-05
 Reference value :  1.15100e-05
 Reference value :  1.15112e-05
 Reference value :  1.15132e-05
 Reference value :  1.15152e-05
 Reference value :  1.15174e-05
 Reference value :  1.15238e-05
 Reference value :  1.15492e-05
 Reference value :  1.15793e-05
 Reference value :  1.15897e-05
 Reference value :  1.16087e-05
 Reference value :  1.16381e-05
 Reference value :  1.16670e-05
 Reference value :  1.16912e-05
 Reference value :  1.16974e-05
 Reference value :  1.17113e-05
 Reference value :  1.17330e-05
 Reference value :  1.17501e-05
 Reference value :  1.17502e-05
 Reference value :  1.17502e-05
 Reference value :  1.17503e-05
 Reference value :  1.17507e-05
 Reference value :  1.17514e-05
 Reference value :  1.17523e-05
 Reference value :  1.17535e-05
 Reference value :  1.17546e-05
 Reference value :  1.17589e-05
 Reference value :  1.17724e-05
 Reference value :  1.18727e-05
 Reference value :  1.20000e-05
 Reference value :  1.20001e-05
 Reference value :  1.20003e-05
 Reference value :  1.20008e-05
 Reference value :  1.20016e-05
 Reference value :  1.20024e-05
 Reference value :  1.20029e-05
 Reference value :  1.20040e-05
 Reference value :  1.20055e-05
 Reference value :  1.20062e-05
 Reference value :  1.20077e-05
 Reference value :  1.20096e-05
 Reference value :  1.20125e-05
 Reference value :  1.20155e-05
 Reference value :  1.20823e-05
 Reference value :  1.22501e-05
 Reference value :  1.22502e-05
 Reference value :  1.22507e-05
 Reference value :  1.22519e-05
 Reference value :  1.22534e-05
 Reference value :  1.22550e-05
 Reference value :  1.22603e-05
 Reference value :  1.24573e-05
 Reference value :  1.25001e-05
 Reference value :  1.25002e-05
 Reference value :  1.25008e-05
 Reference value :  1.25016e-05
 Reference value :  1.25029e-05
 Reference value :  1.25050e-05
 Reference value :  1.25085e-05
 Reference value :  1.25112e-05
 Reference value :  1.25143e-05
 Reference value :  1.25174e-05
 Reference value :  1.25280e-05
 Reference value :  1.25372e-05
 Reference value :  1.25448e-05
 Reference value :  1.25585e-05
 Reference value :  1.25880e-05
 Reference value :  1.27501e-05
 Reference value :  1.27502e-05
 Reference value :  1.27504e-05
 Reference value :  1.27514e-05
 Reference value :  1.27530e-05
 Reference value :  1.27539e-05
 Reference value :  1.27559e-05
 Reference value :  1.27615e-05
 Reference value :  1.28135e-05
 Reference value :  1.30000e-05
 Reference value :  1.30000e-05
 Reference value :  1.30001e-05
 Reference value :  1.30003e-05
 Reference value :  1.30012e-05
 Reference value :  1.30019e-05
 Reference value :  1.30028e-05
 Reference value :  1.30039e-05
 Reference value :  1.30054e-05
 Reference value :  1.30060e-05
 Reference value :  1.30075e-05
 Reference value :  1.30092e-05
 Reference value :  1.30103e-05
 Reference value :  1.30136e-05
 Reference value :  1.30316e-05
 Reference value :  1.31426e-05
 Reference value :  1.32501e-05
 Reference value :  1.32502e-05
 Reference value :  1.32503e-05
 Reference value :  1.32504e-05
 Reference value :  1.32510e-05
 Reference value :  1.32514e-05
 Reference value :  1.32523e-05
 Reference value :  1.32534e-05
 Reference value :  1.32545e-05
 Reference value :  1.32558e-05
 Reference value :  1.32575e-05
 Reference value :  1.32596e-05
 Reference value :  1.32674e-05
 Reference value :  1.33198e-05
 Reference value :  1.35000e-05
 Reference value :  1.35001e-05
 Reference value :  1.35003e-05
 Reference value :  1.35012e-05
 Reference value :  1.35020e-05
 Reference value :  1.35029e-05
 Reference value :  1.35039e-05
 Reference value :  1.35048e-05
 Reference value :  1.35066e-05
 Reference value :  1.35084e-05
 Reference value :  1.35102e-05
 Reference value :  1.35127e-05
 Reference value :  1.35165e-05
 Reference value :  1.35244e-05
 Reference value :  1.35331e-05
 Reference value :  1.35427e-05
 Reference value :  1.35798e-05
 Reference value :  1.37501e-05
 Reference value :  1.37502e-05
 Reference value :  1.37507e-05
 Reference value :  1.37514e-05
 Reference value :  1.37530e-05
 Reference value :  1.37540e-05
 Reference value :  1.37552e-05
 Reference value :  1.37616e-05
 Reference value :  1.38727e-05
 Reference value :  1.40001e-05
 Reference value :  1.40002e-05
 Reference value :  1.40005e-05
 Reference value :  1.40016e-05
 Reference value :  1.40029e-05
 Reference value :  1.40047e-05
 Reference value :  1.40069e-05
 Reference value :  1.40109e-05
 Reference value :  1.41527e-05
 Reference value :  1.42502e-05
 Reference value :  1.42503e-05
 Reference value :  1.42514e-05
 Reference value :  1.42530e-05
 Reference value :  1.42540e-05
 Reference value :  1.42550e-05
 Reference value :  1.42566e-05
 Reference value :  1.42697e-05
 Reference value :  1.44554e-05
 Reference value :  1.45001e-05
 Reference value :  1.45002e-05
 Reference value :  1.45005e-05
 Reference value :  1.45012e-05
 Reference value :  1.45016e-05
 Reference value :  1.45024e-05
 Reference value :  1.45034e-05
 Reference value :  1.45045e-05
 Reference value :  1.45055e-05
 Reference value :  1.45085e-05
 Reference value :  1.45112e-05
 Reference value :  1.45132e-05
 Reference value :  1.45152e-05
 Reference value :  1.45174e-05
 Reference value :  1.45240e-05
 Reference value :  1.45336e-05
 Reference value :  1.45449e-05
 Reference value :  1.45596e-05
 Reference value :  1.45836e-05
 Reference value :  1.47071e-05
 Reference value :  1.47501e-05
 Reference value :  1.47502e-05
 Reference value :  1.47503e-05
 Reference value :  1.47510e-05
 Reference value :  1.47519e-05
 Reference value :  1.47530e-05
 Reference value :  1.47534e-05
 Reference value :  1.47546e-05
 Reference value :  1.47573e-05
 Reference value :  1.47649e-05
 Reference value :  1.48135e-05
 Reference value :  1.50000e-05
 Reference value :  1.50001e-05
 Reference value :  1.50002e-05
 Reference value :  1.50008e-05
 Reference value :  1.50015e-05
 Reference value :  1.50028e-05
 Reference value :  1.50046e-05
 Reference value :  1.50060e-05
 Reference value :  1.50075e-05
 Reference value :  1.50103e-05
 Reference value :  1.50316e-05
 Reference value :  1.52501e-05
 Reference value :  1.52502e-05
 Reference value :  1.52504e-05
 Reference value :  1.52514e-05
 Reference value :  1.52530e-05
 Reference value :  1.52540e-05
 Reference value :  1.52558e-05
 Reference value :  1.52584e-05
 Reference value :  1.52674e-05
 Reference value :  1.54986e-05
 Reference value :  1.55000e-05
 Reference value :  1.55002e-05
 Reference value :  1.55008e-05
 Reference value :  1.55020e-05
 Reference value :  1.55034e-05
 Reference value :  1.55048e-05
 Reference value :  1.55075e-05
 Reference value :  1.55102e-05
 Reference value :  1.55119e-05
 Reference value :  1.55144e-05
 Reference value :  1.55165e-05
 Reference value :  1.55211e-05
 Reference value :  1.55348e-05
 Reference value :  1.56527e-05
 Reference value :  1.57501e-05
 Reference value :  1.57502e-05
 Reference value :  1.57502e-05
 Reference value :  1.57504e-05
 Reference value :  1.57510e-05
 Reference value :  1.57519e-05
 Reference value :  1.57530e-05
 Reference value :  1.57534e-05
 Reference value :  1.57546e-05
 Reference value :  1.57575e-05
 Reference value :  1.57655e-05
 Reference value :  1.58760e-05
 Reference value :  1.60000e-05
 Reference value :  1.60001e-05
 Reference value :  1.60002e-05
 Reference value :  1.60005e-05
 Reference value :  1.60012e-05
 Reference value :  1.60019e-05
 Reference value :  1.60028e-05
 Reference value :  1.60046e-05
 Reference value :  1.60060e-05
 Reference value :  1.60075e-05
 Reference value :  1.60103e-05
 Reference value :  1.60473e-05
 Reference value :  1.62501e-05
 Reference value :  1.62503e-05
 Reference value :  1.62507e-05
 Reference value :  1.62514e-05
 Reference value :  1.62530e-05
 Reference value :  1.62534e-05
 Reference value :  1.62545e-05
 Reference value :  1.62558e-05
 Reference value :  1.62575e-05
 Reference value :  1.62596e-05
 Reference value :  1.62747e-05
 Reference value :  1.64966e-05
 Reference value :  1.65000e-05
 Reference value :  1.65001e-05
 Reference value :  1.65001e-05
 Reference value :  1.65003e-05
 Reference value :  1.65008e-05
 Reference value :  1.65016e-05
 Reference value :  1.65024e-05
 Reference value :  1.65029e-05
 Reference value :  1.65039e-05
 Reference value :  1.65053e-05
 Reference value :  1.65074e-05
 Reference value :  1.65099e-05
 Reference value :  1.65168e-05
 Reference value :  1.65272e-05
 Reference value :  1.65329e-05
 Reference value :  1.65362e-05
 Reference value :  1.65453e-05
 Reference value :  1.65613e-05
 Reference value :  1.66044e-05
 Reference value :  1.67501e-05
 Reference value :  1.67501e-05
 Reference value :  1.67502e-05
 Reference value :  1.67503e-05
 Reference value :  1.67507e-05
 Reference value :  1.67514e-05
 Reference value :  1.67523e-05
 Reference value :  1.67536e-05
 Reference value :  1.67553e-05
 Reference value :  1.67577e-05
 Reference value :  1.67663e-05
 Reference value :  1.68217e-05
 Reference value :  1.70000e-05
 Reference value :  1.70000e-05
 Reference value :  1.70000e-05
 Reference value :  1.70000e-05
 Reference value :  1.70001e-05
 Reference value :  1.70001e-05
 Reference value :  1.70004e-05
 Reference value :  1.70016e-05
 Reference value :  1.70024e-05
 Reference value :  1.70035e-05
 Reference value :  1.70045e-05
 Reference value :  1.70074e-05
 Reference value :  1.70224e-05
 Reference value :  1.70262e-05
 Reference value :  1.70291e-05
 Reference value :  1.70317e-05
 Reference value :  1.70358e-05
 Reference value :  1.70456e-05
 Reference value :  1.70686e-05
 Reference value :  1.71207e-05
 Reference value :  1.72501e-05
 Reference value :  1.72502e-05
 Reference value :  1.72503e-05
 Reference value :  1.72507e-05
 Reference value :  1.72514e-05
 Reference value :  1.72530e-05
 Reference value :  1.72540e-05
 Reference value :  1.72551e-05
 Reference value :  1.72587e-05
 Reference value :  1.72846e-05
 Reference value :  1.75000e-05
 Reference value :  1.75001e-05
 Reference value :  1.75002e-05
 Reference value :  1.75008e-05
 Reference value :  1.75016e-05
 Reference value :  1.75029e-05
 Reference value :  1.75040e-05
 Reference value :  1.75066e-05
 Reference value :  1.75101e-05
 Reference value :  1.75128e-05
 Reference value :  1.75180e-05
 Reference value :  1.75796e-05
 Reference value :  1.77501e-05
 Reference value :  1.77502e-05
 Reference value :  1.77504e-05
 Reference value :  1.77510e-05
 Reference value :  1.77514e-05
 Reference value :  1.77530e-05
 Reference value :  1.77534e-05
 Reference value :  1.77545e-05
 Reference value :  1.77558e-05
 Reference value :  1.77602e-05
 Reference value :  1.77821e-05
 Reference value :  1.79558e-05
 Reference value :  1.80007e-05
 Reference value :  1.80022e-05
 Reference value :  1.80030e-05
 Reference value :  1.80044e-05
 Reference value :  1.80056e-05
 Reference value :  1.80095e-05
 Reference value :  1.80121e-05
 Reference value :  1.80139e-05
 Reference value :  1.80158e-05
 Reference value :  1.80181e-05
 Reference value :  1.80265e-05
 Reference value :  1.80733e-05
 Reference value :  1.81562e-05
 Reference value :  1.81842e-05
 Reference value :  1.81954e-05
 Reference value :  1.82143e-05
 Reference value :  1.82501e-05
 Reference value :  1.82502e-05
 Reference value :  1.82503e-05
 Reference value :  1.82507e-05
 Reference value :  1.82514e-05
 Reference value :  1.82530e-05
 Reference value :  1.82539e-05
 Reference value :  1.82559e-05
 Reference value :  1.82647e-05
 Reference value :  1.83624e-05
 Reference value :  1.85000e-05
 Reference value :  1.85001e-05
 Reference value :  1.85002e-05
 Reference value :  1.85008e-05
 Reference value :  1.85015e-05
 Reference value :  1.85028e-05
 Reference value :  1.85046e-05
 Reference value :  1.85060e-05
 Reference value :  1.85075e-05
 Reference value :  1.85103e-05
 Reference value :  1.85221e-05
 Reference value :  1.87501e-05
 Reference value :  1.87502e-05
 Reference value :  1.87504e-05
 Reference value :  1.87514e-05
 Reference value :  1.87530e-05
 Reference value :  1.87540e-05
 Reference value :  1.87550e-05
 Reference value :  1.87566e-05
 Reference value :  1.87583e-05
 Reference value :  1.87636e-05
 Reference value :  1.88184e-05
 Reference value :  1.90000e-05
 Reference value :  1.90001e-05
 Reference value :  1.90002e-05
 Reference value :  1.90005e-05
 Reference value :  1.90012e-05
 Reference value :  1.90016e-05
 Reference value :  1.90024e-05
 Reference value :  1.90034e-05
 Reference value :  1.90039e-05
 Reference value :  1.90048e-05
 Reference value :  1.90066e-05
 Reference value :  1.90076e-05
 Reference value :  1.90093e-05
 Reference value :  1.90102e-05
 Reference value :  1.90119e-05
 Reference value :  1.90136e-05
 Reference value :  1.90155e-05
 Reference value :  1.90177e-05
 Reference value :  1.90253e-05
 Reference value :  1.90503e-05
 Reference value :  1.90590e-05
 Reference value :  1.90665e-05
 Reference value :  1.90709e-05
 Reference value :  1.90780e-05
 Reference value :  1.91105e-05
 Reference value :  1.91704e-05
 Reference value :  1.92501e-05
 Reference value :  1.92502e-05
 Reference value :  1.92503e-05
 Reference value :  1.92507e-05
 Reference value :  1.92514e-05
 Reference value :  1.92523e-05
 Reference value :  1.92534e-05
 Reference value :  1.92546e-05
 Reference value :  1.92560e-05
 Reference value :  1.92616e-05
 Reference value :  1.92866e-05
 Reference value :  1.94869e-05
 Reference value :  1.95002e-05
 Reference value :  1.95009e-05
 Reference value :  1.95015e-05
 Reference value :  1.95024e-05
 Reference value :  1.95034e-05
 Reference value :  1.95048e-05
 Reference value :  1.95063e-05
 Reference value :  1.95078e-05
 Reference value :  1.95096e-05
 Reference value :  1.95166e-05
 Reference value :  1.95593e-05
 Reference value :  1.97501e-05
 Reference value :  1.97502e-05
 Reference value :  1.97504e-05
 Reference value :  1.97514e-05
 Reference value :  1.97530e-05
 Reference value :  1.97534e-05
 Reference value :  1.97545e-05
 Reference value :  1.97558e-05
 Reference value :  1.97602e-05
 Reference value :  1.98067e-05
 Reference value :  2.00000e-05
 Reference value :  2.00001e-05
 Reference value :  2.00003e-05
 Reference value :  2.00016e-05
 Reference value :  2.00029e-05
 Reference value :  2.00050e-05
 Reference value :  2.00085e-05
 Reference value :  2.00112e-05
 Reference value :  2.00143e-05
 Reference value :  2.00163e-05
 Reference value :  2.00238e-05
 Reference value :  2.00633e-05
 Reference value :  2.00861e-05
 Reference value :  2.01039e-05
 Reference value :  2.01525e-05
 Reference value :  2.01693e-05
 Reference value :  2.01822e-05
 Reference value :  2.01884e-05
 Reference value :  2.02016e-05
 Reference value :  2.02501e-05
 Reference value :  2.02502e-05
 Reference value :  2.02503e-05
 Reference value :  2.02510e-05
 Reference value :  2.02519e-05
 Reference value :  2.02534e-05
 Reference value :  2.02546e-05
 Reference value :  2.02574e-05
 Reference value :  2.02723e-05
 Reference value :  2.04863e-05
 Reference value :  2.05002e-05
 Reference value :  2.05010e-05
 Reference value :  2.05015e-05
 Reference value :  2.05024e-05
 Reference value :  2.05035e-05
 Reference value :  2.05058e-05
 Reference value :  2.05085e-05
 Reference value :  2.05139e-05
 Reference value :  2.05745e-05
 Reference value :  2.07501e-05
 Reference value :  2.07503e-05
 Reference value :  2.07510e-05
 Reference value :  2.07519e-05
 Reference value :  2.07534e-05
 Reference value :  2.07550e-05
 Reference value :  2.07582e-05
 Reference value :  2.08071e-05
 Reference value :  2.10001e-05
 Reference value :  2.10002e-05
 Reference value :  2.10003e-05
 Reference value :  2.10008e-05
 Reference value :  2.10016e-05
 Reference value :  2.10029e-05
 Reference value :  2.10045e-05
 Reference value :  2.10063e-05
 Reference value :  2.10100e-05
 Reference value :  2.10122e-05
 Reference value :  2.10152e-05
 Reference value :  2.10191e-05
 Reference value :  2.10283e-05
 Reference value :  2.10375e-05
 Reference value :  2.10452e-05
 Reference value :  2.10535e-05
 Reference value :  2.10696e-05
 Reference value :  2.11380e-05
 Reference value :  2.12502e-05
 Reference value :  2.12503e-05
 Reference value :  2.12514e-05
 Reference value :  2.12530e-05
 Reference value :  2.12539e-05
 Reference value :  2.12559e-05
 Reference value :  2.12649e-05
 Reference value :  2.14798e-05
 Reference value :  2.15001e-05
 Reference value :  2.15002e-05
 Reference value :  2.15008e-05
 Reference value :  2.15015e-05
 Reference value :  2.15028e-05
 Reference value :  2.15039e-05
 Reference value :  2.15054e-05
 Reference value :  2.15060e-05
 Reference value :  2.15075e-05
 Reference value :  2.15103e-05
 Reference value :  2.15221e-05
 Reference value :  2.15792e-05
 Reference value :  2.17501e-05
 Reference value :  2.17502e-05
 Reference value :  2.17503e-05
 Reference value :  2.17510e-05
 Reference value :  2.17519e-05
 Reference value :  2.17530e-05
 Reference value :  2.17534e-05
 Reference value :  2.17545e-05
 Reference value :  2.17558e-05
 Reference value :  2.17575e-05
 Reference value :  2.17596e-05
 Reference value :  2.17674e-05
 Reference value :  2.18198e-05
 Reference value :  2.20000e-05
 Reference value :  2.20001e-05
 Reference value :  2.20002e-05
 Reference value :  2.20008e-05
 Reference value :  2.20016e-05
 Reference value :  2.20024e-05
 Reference value :  2.20034e-05
 Reference value :  2.20044e-05
 Reference value :  2.20054e-05
 Reference value :  2.20087e-05
 Reference value :  2.20105e-05
 Reference value :  2.20120e-05
 Reference value :  2.20143e-05
 Reference value :  2.20169e-05
 Reference value :  2.20225e-05
 Reference value :  2.20313e-05
 Reference value :  2.20336e-05
 Reference value :  2.20376e-05
 Reference value :  2.20527e-05
 Reference value :  2.21124e-05
 Reference value :  2.22501e-05
 Reference value :  2.22502e-05
 Reference value :  2.22503e-05
 Reference value :  2.22507e-05
 Reference value :  2.22514e-05
 Reference value :  2.22523e-05
 Reference value :  2.22534e-05
 Reference value :  2.22546e-05
 Reference value :  2.22574e-05
 Reference value :  2.22651e-05
 Reference value :  2.23148e-05
 Reference value :  2.25000e-05
 Reference value :  2.25001e-05
 Reference value :  2.25002e-05
 Reference value :  2.25005e-05
 Reference value :  2.25012e-05
 Reference value :  2.25020e-05
 Reference value :  2.25029e-05
 Reference value :  2.25040e-05
 Reference value :  2.25055e-05
 Reference value :  2.25069e-05
 Reference value :  2.25077e-05
 Reference value :  2.25109e-05
 Reference value :  2.25295e-05
 Reference value :  2.26522e-05
 Reference value :  2.27501e-05
 Reference value :  2.27502e-05
 Reference value :  2.27504e-05
 Reference value :  2.27514e-05
 Reference value :  2.27530e-05
 Reference value :  2.27540e-05
 Reference value :  2.27550e-05
 Reference value :  2.27582e-05
 Reference value :  2.27826e-05
 Reference value :  2.30000e-05
 Reference value :  2.30007e-05
 Reference value :  2.30028e-05
 Reference value :  2.30041e-05
 Reference value :  2.30052e-05
 Reference value :  2.30085e-05
 Reference value :  2.30113e-05
 Reference value :  2.30135e-05
 Reference value :  2.30156e-05
 Reference value :  2.30194e-05
 Reference value :  2.30332e-05
 Reference value :  2.30426e-05
 Reference value :  2.30586e-05
 Reference value :  2.31122e-05
 Reference value :  2.32501e-05
 Reference value :  2.32502e-05
 Reference value :  2.32507e-05
 Reference value :  2.32519e-05
 Reference value :  2.32534e-05
 Reference value :  2.32552e-05
 Reference value :  2.32648e-05
 Reference value :  2.35000e-05
 Reference value :  2.35001e-05
 Reference value :  2.35002e-05
 Reference value :  2.35008e-05
 Reference value :  2.35019e-05
 Reference value :  2.35028e-05
 Reference value :  2.35039e-05
 Reference value :  2.35054e-05
 Reference value :  2.35060e-05
 Reference value :  2.35075e-05
 Reference value :  2.35092e-05
 Reference value :  2.35103e-05
 Reference value :  2.35167e-05
 Reference value :  2.35795e-05
 Reference value :  2.37501e-05
 Reference value :  2.37502e-05
 Reference value :  2.37504e-05
 Reference value :  2.37514e-05
 Reference value :  2.37523e-05
 Reference value :  2.37534e-05
 Reference value :  2.37550e-05
 Reference value :  2.37575e-05
 Reference value :  2.37610e-05
 Reference value :  2.37892e-05
 Reference value :  2.40000e-05
 Reference value :  2.40001e-05
 Reference value :  2.40003e-05
 Reference value :  2.40012e-05
 Reference value :  2.40020e-05
 Reference value :  2.40029e-05
 Reference value :  2.40039e-05
 Reference value :  2.40053e-05
 Reference value :  2.40076e-05
 Reference value :  2.40102e-05
 Reference value :  2.40119e-05
 Reference value :  2.40144e-05
 Reference value :  2.40175e-05
 Reference value :  2.40279e-05
 Reference value :  2.41131e-05
 Reference value :  2.42501e-05
 Reference value :  2.42502e-05
 Reference value :  2.42503e-05
 Reference value :  2.42510e-05
 Reference value :  2.42523e-05
 Reference value :  2.42534e-05
 Reference value :  2.42553e-05
 Reference value :  2.42618e-05
 Reference value :  2.43757e-05
 Reference value :  2.45001e-05
 Reference value :  2.45002e-05
 Reference value :  2.45008e-05
 Reference value :  2.45015e-05
 Reference value :  2.45028e-05
 Reference value :  2.45046e-05
 Reference value :  2.45060e-05
 Reference value :  2.45084e-05
 Reference value :  2.45114e-05
 Reference value :  2.45315e-05
 Reference value :  2.46422e-05
 Reference value :  2.47501e-05
 Reference value :  2.47502e-05
 Reference value :  2.47504e-05
 Reference value :  2.47514e-05
 Reference value :  2.47530e-05
 Reference value :  2.47534e-05
 Reference value :  2.47545e-05
 Reference value :  2.47558e-05
 Reference value :  2.47575e-05
 Reference value :  2.47596e-05
 Reference value :  2.47746e-05
 Reference value :  2.49942e-05
 Reference value :  2.50001e-05
 Reference value :  2.50002e-05
 Reference value :  2.50005e-05
 Reference value :  2.50012e-05
 Reference value :  2.50020e-05
 Reference value :  2.50029e-05
 Reference value :  2.50039e-05
 Reference value :  2.50048e-05
 Reference value :  2.50066e-05
 Reference value :  2.50082e-05
 Reference value :  2.50090e-05
 Reference value :  2.50124e-05
 Reference value :  2.50162e-05
 Reference value :  2.50208e-05
 Reference value :  2.50230e-05
 Reference value :  2.50280e-05
 Reference value :  2.50355e-05
 Reference value :  2.50462e-05
 Reference value :  2.50782e-05
 Reference value :  2.52398e-05
 Reference value :  2.52501e-05
 Reference value :  2.52502e-05
 Reference value :  2.52503e-05
 Reference value :  2.52510e-05
 Reference value :  2.52514e-05
 Reference value :  2.52523e-05
 Reference value :  2.52536e-05
 Reference value :  2.52553e-05
 Reference value :  2.52577e-05
 Reference value :  2.52663e-05
 Reference value :  2.53217e-05
 Reference value :  2.55000e-05
 Reference value :  2.55000e-05
 Reference value :  2.55000e-05
 Reference value :  2.55000e-05
 Reference value :  2.55000e-05
 Reference value :  2.55001e-05
 Reference value :  2.55002e-05
 Reference value :  2.55004e-05
 Reference value :  2.55012e-05
 Reference value :  2.55020e-05
 Reference value :  2.55029e-05
 Reference value :  2.55040e-05
 Reference value :  2.55045e-05
 Reference value :  2.55055e-05
 Reference value :  2.55090e-05
 Reference value :  2.55173e-05
 Reference value :  2.55224e-05
 Reference value :  2.55262e-05
 Reference value :  2.55291e-05
 Reference value :  2.55317e-05
 Reference value :  2.55358e-05
 Reference value :  2.55426e-05
 Reference value :  2.55545e-05
 Reference value :  2.55694e-05
 Reference value :  2.55997e-05
 Reference value :  2.57152e-05
 Reference value :  2.57501e-05
 Reference value :  2.57502e-05
 Reference value :  2.57502e-05
 Reference value :  2.57503e-05
 Reference value :  2.57507e-05
 Reference value :  2.57514e-05
 Reference value :  2.57523e-05
 Reference value :  2.57534e-05
 Reference value :  2.57545e-05
 Reference value :  2.57573e-05
 Reference value :  2.57647e-05
 Reference value :  2.59710e-05
 Reference value :  2.60001e-05
 Reference value :  2.60002e-05
 Reference value :  2.60008e-05
 Reference value :  2.60020e-05
 Reference value :  2.60034e-05
 Reference value :  2.60065e-05
 Reference value :  2.60101e-05
 Reference value :  2.60128e-05
 Reference value :  2.60215e-05
 Reference value :  2.60507e-05
 Reference value :  2.62501e-05
 Reference value :  2.62502e-05
 Reference value :  2.62503e-05
 Reference value :  2.62507e-05
 Reference value :  2.62519e-05
 Reference value :  2.62534e-05
 Reference value :  2.62558e-05
 Reference value :  2.62821e-05
 Reference value :  2.65000e-05
 Reference value :  2.65007e-05
 Reference value :  2.65030e-05
 Reference value :  2.65044e-05
 Reference value :  2.65050e-05
 Reference value :  2.65062e-05
 Reference value :  2.65094e-05
 Reference value :  2.65121e-05
 Reference value :  2.65139e-05
 Reference value :  2.65159e-05
 Reference value :  2.65202e-05
 Reference value :  2.65469e-05
 Reference value :  2.66556e-05
 Reference value :  2.66838e-05
 Reference value :  2.67017e-05
 Reference value :  2.67501e-05
 Reference value :  2.67502e-05
 Reference value :  2.67503e-05
 Reference value :  2.67507e-05
 Reference value :  2.67519e-05
 Reference value :  2.67530e-05
 Reference value :  2.67539e-05
 Reference value :  2.67559e-05
 Reference value :  2.67646e-05
 Reference value :  2.68622e-05
 Reference value :  2.70000e-05
 Reference value :  2.70001e-05
 Reference value :  2.70002e-05
 Reference value :  2.70008e-05
 Reference value :  2.70015e-05
 Reference value :  2.70028e-05
 Reference value :  2.70046e-05
 Reference value :  2.70060e-05
 Reference value :  2.70075e-05
 Reference value :  2.70092e-05
 Reference value :  2.70114e-05
 Reference value :  2.70221e-05
 Reference value :  2.70791e-05
 Reference value :  2.72501e-05
 Reference value :  2.72502e-05
 Reference value :  2.72502e-05
 Reference value :  2.72504e-05
 Reference value :  2.72510e-05
 Reference value :  2.72514e-05
 Reference value :  2.72523e-05
 Reference value :  2.72534e-05
 Reference value :  2.72545e-05
 Reference value :  2.72558e-05
 Reference value :  2.72575e-05
 Reference value :  2.72596e-05
 Reference value :  2.72895e-05
 Reference value :  2.75000e-05
 Reference value :  2.75001e-05
 Reference value :  2.75002e-05
 Reference value :  2.75008e-05
 Reference value :  2.75016e-05
 Reference value :  2.75029e-05
 Reference value :  2.75039e-05
 Reference value :  2.75048e-05
 Reference value :  2.75066e-05
 Reference value :  2.75084e-05
 Reference value :  2.75102e-05
 Reference value :  2.75127e-05
 Reference value :  2.75155e-05
 Reference value :  2.75194e-05
 Reference value :  2.75507e-05
 Reference value :  2.75590e-05
 Reference value :  2.75656e-05
 Reference value :  2.75763e-05
 Reference value :  2.75908e-05
 Reference value :  2.76157e-05
 Reference value :  2.76707e-05
 Reference value :  2.77501e-05
 Reference value :  2.77502e-05
 Reference value :  2.77503e-05
 Reference value :  2.77507e-05
 Reference value :  2.77514e-05
 Reference value :  2.77523e-05
 Reference value :  2.77535e-05
 Reference value :  2.77546e-05
 Reference value :  2.77589e-05
 Reference value :  2.78154e-05
 Reference value :  2.80002e-05
 Reference value :  2.80009e-05
 Reference value :  2.80019e-05
 Reference value :  2.80033e-05
 Reference value :  2.80046e-05
 Reference value :  2.80060e-05
 Reference value :  2.80074e-05
 Reference value :  2.80102e-05
 Reference value :  2.80219e-05
 Reference value :  2.81836e-05
 Reference value :  2.82501e-05
 Reference value :  2.82502e-05
 Reference value :  2.82503e-05
 Reference value :  2.82507e-05
 Reference value :  2.82514e-05
 Reference value :  2.82523e-05
 Reference value :  2.82534e-05
 Reference value :  2.82545e-05
 Reference value :  2.82558e-05
 Reference value :  2.82602e-05
 Reference value :  2.82819e-05
 Reference value :  2.85000e-05
 Reference value :  2.85001e-05
 Reference value :  2.85002e-05
 Reference value :  2.85003e-05
 Reference value :  2.85008e-05
 Reference value :  2.85016e-05
 Reference value :  2.85029e-05
 Reference value :  2.85040e-05
 Reference value :  2.85050e-05
 Reference value :  2.85063e-05
 Reference value :  2.85100e-05
 Reference value :  2.85112e-05
 Reference value :  2.85132e-05
 Reference value :  2.85152e-05
 Reference value :  2.85191e-05
 Reference value :  2.85360e-05
 Reference value :  2.85632e-05
 Reference value :  2.85858e-05
 Reference value :  2.86104e-05
 Reference value :  2.86604e-05
 Reference value :  2.86753e-05
 Reference value :  2.86824e-05
 Reference value :  2.86963e-05
 Reference value :  2.87314e-05
 Reference value :  2.87501e-05
 Reference value :  2.87502e-05
 Reference value :  2.87504e-05
 Reference value :  2.87514e-05
 Reference value :  2.87523e-05
 Reference value :  2.87535e-05
 Reference value :  2.87546e-05
 Reference value :  2.87574e-05
 Reference value :  2.87652e-05
 Reference value :  2.88153e-05
 Reference value :  2.90002e-05
 Reference value :  2.90009e-05
 Reference value :  2.90015e-05
 Reference value :  2.90028e-05
 Reference value :  2.90039e-05
 Reference value :  2.90055e-05
 Reference value :  2.90063e-05
 Reference value :  2.90077e-05
 Reference value :  2.90095e-05
 Reference value :  2.90229e-05
 Reference value :  2.92084e-05
 Reference value :  2.92501e-05
 Reference value :  2.92502e-05
 Reference value :  2.92503e-05
 Reference value :  2.92510e-05
 Reference value :  2.92519e-05
 Reference value :  2.92530e-05
 Reference value :  2.92540e-05
 Reference value :  2.92545e-05
 Reference value :  2.92558e-05
 Reference value :  2.92603e-05
 Reference value :  2.92823e-05
 Reference value :  2.94566e-05
 Reference value :  2.95000e-05
 Reference value :  2.95001e-05
 Reference value :  2.95002e-05
 Reference value :  2.95003e-05
 Reference value :  2.95008e-05
 Reference value :  2.95016e-05
 Reference value :  2.95024e-05
 Reference value :  2.95029e-05
 Reference value :  2.95040e-05
 Reference value :  2.95050e-05
 Reference value :  2.95071e-05
 Reference value :  2.95100e-05
 Reference value :  2.95112e-05
 Reference value :  2.95122e-05
 Reference value :  2.95143e-05
 Reference value :  2.95163e-05
 Reference value :  2.95208e-05
 Reference value :  2.95374e-05
 Reference value :  2.95488e-05
 Reference value :  2.95583e-05
 Reference value :  2.95756e-05
 Reference value :  2.96892e-05
 Reference value :  2.97501e-05
 Reference value :  2.97502e-05
 Reference value :  2.97503e-05
 Reference value :  2.97510e-05
 Reference value :  2.97519e-05
 Reference value :  2.97534e-05
 Reference value :  2.97559e-05
 Reference value :  2.97857e-05
 Reference value :  3.00000e-05
 Reference value :  3.00001e-05
 Reference value :  3.00002e-05
 Reference value :  3.00008e-05
 Reference value :  3.00015e-05
 Reference value :  3.00028e-05
 Reference value :  3.00046e-05
 Reference value :  3.00060e-05
 Reference value :  3.00075e-05
 Reference value :  3.00103e-05
 Reference value :  3.00221e-05
 Reference value :  3.01426e-05
 Reference value :  3.02501e-05
 Reference value :  3.02502e-05
 Reference value :  3.02504e-05
 Reference value :  3.02510e-05
 Reference value :  3.02519e-05
 Reference value :  3.02530e-05
 Reference value :  3.02540e-05
 Reference value :  3.02550e-05
 Reference value :  3.02575e-05
 Reference value :  3.02596e-05
 Reference value :  3.02674e-05
 Reference value :  3.03198e-05
 Reference value :  3.04994e-05
 Reference value :  3.05000e-05
 Reference value :  3.05001e-05
 Reference value :  3.05001e-05
 Reference value :  3.05002e-05
 Reference value :  3.05006e-05
 Reference value :  3.05012e-05
 Reference value :  3.05016e-05
 Reference value :  3.05024e-05
 Reference value :  3.05029e-05
 Reference value :  3.05039e-05
 Reference value :  3.05049e-05
 Reference value :  3.05062e-05
 Reference value :  3.05083e-05
 Reference value :  3.05101e-05
 Reference value :  3.05120e-05
 Reference value :  3.05138e-05
 Reference value :  3.05156e-05
 Reference value :  3.05179e-05
 Reference value :  3.05220e-05
 Reference value :  3.05276e-05
 Reference value :  3.05307e-05
 Reference value :  3.05330e-05
 Reference value :  3.05369e-05
 Reference value :  3.05461e-05
 Reference value :  3.05696e-05
 Reference value :  3.06515e-05
 Reference value :  3.07501e-05
 Reference value :  3.07502e-05
 Reference value :  3.07502e-05
 Reference value :  3.07504e-05
 Reference value :  3.07514e-05
 Reference value :  3.07523e-05
 Reference value :  3.07535e-05
 Reference value :  3.07546e-05
 Reference value :  3.07574e-05
 Reference value :  3.07652e-05
 Reference value :  3.08721e-05
 Reference value :  3.10000e-05
 Reference value :  3.10001e-05
 Reference value :  3.10003e-05
 Reference value :  3.10012e-05
 Reference value :  3.10020e-05
 Reference value :  3.10029e-05
 Reference value :  3.10047e-05
 Reference value :  3.10062e-05
 Reference value :  3.10077e-05
 Reference value :  3.10109e-05
 Reference value :  3.10297e-05
 Reference value :  3.12501e-05
 Reference value :  3.12502e-05
 Reference value :  3.12503e-05
 Reference value :  3.12510e-05
 Reference value :  3.12519e-05
 Reference value :  3.12530e-05
 Reference value :  3.12540e-05
 Reference value :  3.12550e-05
 Reference value :  3.12566e-05
 Reference value :  3.12636e-05
 Reference value :  3.13073e-05
 Reference value :  3.15000e-05
 Reference value :  3.15000e-05
 Reference value :  3.15001e-05
 Reference value :  3.15001e-05
 Reference value :  3.15002e-05
 Reference value :  3.15008e-05
 Reference value :  3.15016e-05
 Reference value :  3.15029e-05
 Reference value :  3.15045e-05
 Reference value :  3.15055e-05
 Reference value :  3.15085e-05
 Reference value :  3.15112e-05
 Reference value :  3.15132e-05
 Reference value :  3.15152e-05
 Reference value :  3.15174e-05
 Reference value :  3.15240e-05
 Reference value :  3.15324e-05
 Reference value :  3.15383e-05
 Reference value :  3.15421e-05
 Reference value :  3.15520e-05
 Reference value :  3.15715e-05
 Reference value :  3.16335e-05
 Reference value :  3.17501e-05
 Reference value :  3.17502e-05
 Reference value :  3.17502e-05
 Reference value :  3.17504e-05
 Reference value :  3.17514e-05
 Reference value :  3.17530e-05
 Reference value :  3.17534e-05
 Reference value :  3.17546e-05
 Reference value :  3.17573e-05
 Reference value :  3.17719e-05
 Reference value :  3.18689e-05
 Reference value :  3.20000e-05
 Reference value :  3.20001e-05
 Reference value :  3.20002e-05
 Reference value :  3.20003e-05
 Reference value :  3.20008e-05
 Reference value :  3.20015e-05
 Reference value :  3.20023e-05
 Reference value :  3.20028e-05
 Reference value :  3.20039e-05
 Reference value :  3.20054e-05
 Reference value :  3.20060e-05
 Reference value :  3.20075e-05
 Reference value :  3.20092e-05
 Reference value :  3.20114e-05
 Reference value :  3.20221e-05
 Reference value :  3.21425e-05
 Reference value :  3.22502e-05
 Reference value :  3.22503e-05
 Reference value :  3.22510e-05
 Reference value :  3.22519e-05
 Reference value :  3.22530e-05
 Reference value :  3.22540e-05
 Reference value :  3.22550e-05
 Reference value :  3.22566e-05
 Reference value :  3.22584e-05
 Reference value :  3.22610e-05
 Reference value :  3.22748e-05
 Reference value :  3.23793e-05
 Reference value :  3.25000e-05
 Reference value :  3.25001e-05
 Reference value :  3.25002e-05
 Reference value :  3.25012e-05
 Reference value :  3.25024e-05
 Reference value :  3.25039e-05
 Reference value :  3.25053e-05
 Reference value :  3.25076e-05
 Reference value :  3.25102e-05
 Reference value :  3.25119e-05
 Reference value :  3.25144e-05
 Reference value :  3.25193e-05
 Reference value :  3.25472e-05
 Reference value :  3.26109e-05
 Reference value :  3.26423e-05
 Reference value :  3.26813e-05
 Reference value :  3.27501e-05
 Reference value :  3.27502e-05
 Reference value :  3.27510e-05
 Reference value :  3.27523e-05
 Reference value :  3.27534e-05
 Reference value :  3.27561e-05
 Reference value :  3.27657e-05
 Reference value :  3.28818e-05
 Reference value :  3.30000e-05
 Reference value :  3.30001e-05
 Reference value :  3.30002e-05
 Reference value :  3.30008e-05
 Reference value :  3.30016e-05
 Reference value :  3.30029e-05
 Reference value :  3.30040e-05
 Reference value :  3.30055e-05
 Reference value :  3.30061e-05
 Reference value :  3.30077e-05
 Reference value :  3.30095e-05
 Reference value :  3.30154e-05
 Reference value :  3.30440e-05
 Reference value :  3.32501e-05
 Reference value :  3.32502e-05
 Reference value :  3.32502e-05
 Reference value :  3.32504e-05
 Reference value :  3.32514e-05
 Reference value :  3.32530e-05
 Reference value :  3.32534e-05
 Reference value :  3.32545e-05
 Reference value :  3.32558e-05
 Reference value :  3.32602e-05
 Reference value :  3.33068e-05
 Reference value :  3.35008e-05
 Reference value :  3.35031e-05
 Reference value :  3.35038e-05
 Reference value :  3.35045e-05
 Reference value :  3.35051e-05
 Reference value :  3.35056e-05
 Reference value :  3.35078e-05
 Reference value :  3.35095e-05
 Reference value :  3.35126e-05
 Reference value :  3.35333e-05
 Reference value :  3.36926e-05
 Reference value :  3.37501e-05
 Reference value :  3.37502e-05
 Reference value :  3.37503e-05
 Reference value :  3.37507e-05
 Reference value :  3.37514e-05
 Reference value :  3.37523e-05
 Reference value :  3.37529e-05
 Reference value :  3.37545e-05
 Reference value :  3.37562e-05
 Reference value :  3.37591e-05
 Reference value :  3.37658e-05
 Reference value :  3.38890e-05
 Reference value :  3.40000e-05
 Reference value :  3.40000e-05
 Reference value :  3.40000e-05
 Reference value :  3.40000e-05
 Reference value :  3.40001e-05
 Reference value :  3.40001e-05
 Reference value :  3.40001e-05
 Reference value :  3.40003e-05
 Reference value :  3.40007e-05
 Reference value :  3.40016e-05
 Reference value :  3.40020e-05
 Reference value :  3.40029e-05
 Reference value :  3.40040e-05
 Reference value :  3.40045e-05
 Reference value :  3.40055e-05
 Reference value :  3.40090e-05
 Reference value :  3.40173e-05
 Reference value :  3.40224e-05
 Reference value :  3.40263e-05
 Reference value :  3.40292e-05
 Reference value :  3.40318e-05
 Reference value :  3.40358e-05
 Reference value :  3.40398e-05
 Reference value :  3.40480e-05
 Reference value :  3.40655e-05
 Reference value :  3.40939e-05
 Reference value :  3.41985e-05
 Reference value :  3.42501e-05
 Reference value :  3.42502e-05
 Reference value :  3.42503e-05
 Reference value :  3.42510e-05
 Reference value :  3.42514e-05
 Reference value :  3.42530e-05
 Reference value :  3.42534e-05
 Reference value :  3.42545e-05
 Reference value :  3.42573e-05
 Reference value :  3.42647e-05
 Reference value :  3.43112e-05
 Reference value :  3.45000e-05
 Reference value :  3.45001e-05
 Reference value :  3.45001e-05
 Reference value :  3.45003e-05
 Reference value :  3.45012e-05
 Reference value :  3.45020e-05
 Reference value :  3.45029e-05
 Reference value :  3.45047e-05
 Reference value :  3.45066e-05
 Reference value :  3.45101e-05
 Reference value :  3.45128e-05
 Reference value :  3.45161e-05
 Reference value :  3.45362e-05
 Reference value :  3.47501e-05
 Reference value :  3.47502e-05
 Reference value :  3.47503e-05
 Reference value :  3.47510e-05
 Reference value :  3.47519e-05
 Reference value :  3.47530e-05
 Reference value :  3.47540e-05
 Reference value :  3.47550e-05
 Reference value :  3.47582e-05
 Reference value :  3.47821e-05
 Reference value :  3.49558e-05
 Reference value :  3.50000e-05
 Reference value :  3.50001e-05
 Reference value :  3.50002e-05
 Reference value :  3.50005e-05
 Reference value :  3.50012e-05
 Reference value :  3.50016e-05
 Reference value :  3.50024e-05
 Reference value :  3.50034e-05
 Reference value :  3.50050e-05
 Reference value :  3.50071e-05
 Reference value :  3.50100e-05
 Reference value :  3.50112e-05
 Reference value :  3.50132e-05
 Reference value :  3.50153e-05
 Reference value :  3.50174e-05
 Reference value :  3.50241e-05
 Reference value :  3.50504e-05
 Reference value :  3.51133e-05
 Reference value :  3.51503e-05
 Reference value :  3.51966e-05
 Reference value :  3.52187e-05
 Reference value :  3.52501e-05
 Reference value :  3.52502e-05
 Reference value :  3.52503e-05
 Reference value :  3.52507e-05
 Reference value :  3.52514e-05
 Reference value :  3.52530e-05
 Reference value :  3.52539e-05
 Reference value :  3.52559e-05
 Reference value :  3.52614e-05
 Reference value :  3.52850e-05
 Reference value :  3.54743e-05
 Reference value :  3.55000e-05
 Reference value :  3.55001e-05
 Reference value :  3.55002e-05
 Reference value :  3.55005e-05
 Reference value :  3.55012e-05
 Reference value :  3.55019e-05
 Reference value :  3.55028e-05
 Reference value :  3.55039e-05
 Reference value :  3.55053e-05
 Reference value :  3.55060e-05
 Reference value :  3.55075e-05
 Reference value :  3.55092e-05
 Reference value :  3.55114e-05
 Reference value :  3.55223e-05
 Reference value :  3.55804e-05
 Reference value :  3.57501e-05
 Reference value :  3.57502e-05
 Reference value :  3.57503e-05
 Reference value :  3.57507e-05
 Reference value :  3.57514e-05
 Reference value :  3.57530e-05
 Reference value :  3.57540e-05
 Reference value :  3.57550e-05
 Reference value :  3.57558e-05
 Reference value :  3.57575e-05
 Reference value :  3.57596e-05
 Reference value :  3.57674e-05
 Reference value :  3.58199e-05
 Reference value :  3.60022e-05
 Reference value :  3.60087e-05
 Reference value :  3.60125e-05
 Reference value :  3.60154e-05
 Reference value :  3.60209e-05
 Reference value :  3.60451e-05
 Reference value :  3.60540e-05
 Reference value :  3.60603e-05
 Reference value :  3.60676e-05
 Reference value :  3.60894e-05
 Reference value :  3.61549e-05
 Reference value :  3.62501e-05
 Reference value :  3.62501e-05
 Reference value :  3.62502e-05
 Reference value :  3.62503e-05
 Reference value :  3.62504e-05
 Reference value :  3.62510e-05
 Reference value :  3.62514e-05
 Reference value :  3.62518e-05
 Reference value :  3.62522e-05
 Reference value :  3.62532e-05
 Reference value :  3.62543e-05
 Reference value :  3.62556e-05
 Reference value :  3.62598e-05
 Reference value :  3.62919e-05
 Reference value :  3.65000e-05
 Reference value :  3.65001e-05
 Reference value :  3.65002e-05
 Reference value :  3.65003e-05
 Reference value :  3.65012e-05
 Reference value :  3.65020e-05
 Reference value :  3.65029e-05
 Reference value :  3.65040e-05
 Reference value :  3.65055e-05
 Reference value :  3.65062e-05
 Reference value :  3.65077e-05
 Reference value :  3.65096e-05
 Reference value :  3.65157e-05
 Reference value :  3.65535e-05
 Reference value :  3.67501e-05
 Reference value :  3.67502e-05
 Reference value :  3.67503e-05
 Reference value :  3.67504e-05
 Reference value :  3.67510e-05
 Reference value :  3.67519e-05
 Reference value :  3.67530e-05
 Reference value :  3.67534e-05
 Reference value :  3.67545e-05
 Reference value :  3.67558e-05
 Reference value :  3.67582e-05
 Reference value :  3.67697e-05
 Reference value :  3.68564e-05
 Reference value :  3.70000e-05
 Reference value :  3.70000e-05
 Reference value :  3.70001e-05
 Reference value :  3.70001e-05
 Reference value :  3.70002e-05
 Reference value :  3.70005e-05
 Reference value :  3.70012e-05
 Reference value :  3.70020e-05
 Reference value :  3.70029e-05
 Reference value :  3.70040e-05
 Reference value :  3.70050e-05
 Reference value :  3.70071e-05
 Reference value :  3.70100e-05
 Reference value :  3.70112e-05
 Reference value :  3.70122e-05
 Reference value :  3.70143e-05
 Reference value :  3.70163e-05
 Reference value :  3.70207e-05
 Reference value :  3.70360e-05
 Reference value :  3.70633e-05
 Reference value :  3.70765e-05
 Reference value :  3.70861e-05
 Reference value :  3.71026e-05
 Reference value :  3.71178e-05
 Reference value :  3.71397e-05
 Reference value :  3.71567e-05
 Reference value :  3.71711e-05
 Reference value :  3.71778e-05
 Reference value :  3.71925e-05
 Reference value :  3.72168e-05
 Reference value :  3.72501e-05
 Reference value :  3.72501e-05
 Reference value :  3.72502e-05
 Reference value :  3.72502e-05
 Reference value :  3.72504e-05
 Reference value :  3.72510e-05
 Reference value :  3.72514e-05
 Reference value :  3.72530e-05
 Reference value :  3.72540e-05
 Reference value :  3.72552e-05
 Reference value :  3.72616e-05
 Reference value :  3.73152e-05
 Reference value :  3.75000e-05
 Reference value :  3.75001e-05
 Reference value :  3.75002e-05
 Reference value :  3.75003e-05
 Reference value :  3.75012e-05
 Reference value :  3.75020e-05
 Reference value :  3.75029e-05
 Reference value :  3.75047e-05
 Reference value :  3.75062e-05
 Reference value :  3.75077e-05
 Reference value :  3.75125e-05
 Reference value :  3.75799e-05
 Reference value :  3.77502e-05
 Reference value :  3.77503e-05
 Reference value :  3.77507e-05
 Reference value :  3.77514e-05
 Reference value :  3.77530e-05
 Reference value :  3.77534e-05
 Reference value :  3.77545e-05
 Reference value :  3.77566e-05
 Reference value :  3.77823e-05
 Reference value :  3.80000e-05
 Reference value :  3.80001e-05
 Reference value :  3.80003e-05
 Reference value :  3.80012e-05
 Reference value :  3.80020e-05
 Reference value :  3.80029e-05
 Reference value :  3.80045e-05
 Reference value :  3.80055e-05
 Reference value :  3.80085e-05
 Reference value :  3.80112e-05
 Reference value :  3.80122e-05
 Reference value :  3.80143e-05
 Reference value :  3.80163e-05
 Reference value :  3.80208e-05
 Reference value :  3.80371e-05
 Reference value :  3.80500e-05
 Reference value :  3.80722e-05
 Reference value :  3.81533e-05
 Reference value :  3.82501e-05
 Reference value :  3.82502e-05
 Reference value :  3.82503e-05
 Reference value :  3.82510e-05
 Reference value :  3.82519e-05
 Reference value :  3.82530e-05
 Reference value :  3.82539e-05
 Reference value :  3.82553e-05
 Reference value :  3.82573e-05
 Reference value :  3.82719e-05
 Reference value :  3.83689e-05
 Reference value :  3.85004e-05
 Reference value :  3.85014e-05
 Reference value :  3.85027e-05
 Reference value :  3.85039e-05
 Reference value :  3.85053e-05
 Reference value :  3.85060e-05
 Reference value :  3.85075e-05
 Reference value :  3.85092e-05
 Reference value :  3.85102e-05
 Reference value :  3.85166e-05
 Reference value :  3.85916e-05
 Reference value :  3.87501e-05
 Reference value :  3.87502e-05
 Reference value :  3.87503e-05
 Reference value :  3.87507e-05
 Reference value :  3.87514e-05
 Reference value :  3.87523e-05
 Reference value :  3.87530e-05
 Reference value :  3.87534e-05
 Reference value :  3.87545e-05
 Reference value :  3.87558e-05
 Reference value :  3.87575e-05
 Reference value :  3.87596e-05
 Reference value :  3.87673e-05
 Reference value :  3.88786e-05
 Reference value :  3.90000e-05
 Reference value :  3.90001e-05
 Reference value :  3.90002e-05
 Reference value :  3.90005e-05
 Reference value :  3.90008e-05
 Reference value :  3.90016e-05
 Reference value :  3.90024e-05
 Reference value :  3.90029e-05
 Reference value :  3.90039e-05
 Reference value :  3.90048e-05
 Reference value :  3.90059e-05
 Reference value :  3.90076e-05
 Reference value :  3.90093e-05
 Reference value :  3.90102e-05
 Reference value :  3.90119e-05
 Reference value :  3.90136e-05
 Reference value :  3.90154e-05
 Reference value :  3.90194e-05
 Reference value :  3.90268e-05
 Reference value :  3.90299e-05
 Reference value :  3.90343e-05
 Reference value :  3.90450e-05
 Reference value :  3.90859e-05
 Reference value :  3.92501e-05
 Reference value :  3.92501e-05
 Reference value :  3.92502e-05
 Reference value :  3.92503e-05
 Reference value :  3.92507e-05
 Reference value :  3.92514e-05
 Reference value :  3.92530e-05
 Reference value :  3.92540e-05
 Reference value :  3.92552e-05
 Reference value :  3.92574e-05
 Reference value :  3.92652e-05
 Reference value :  3.93154e-05
 Reference value :  3.95000e-05
 Reference value :  3.95001e-05
 Reference value :  3.95003e-05
 Reference value :  3.95012e-05
 Reference value :  3.95024e-05
 Reference value :  3.95034e-05
 Reference value :  3.95047e-05
 Reference value :  3.95062e-05
 Reference value :  3.95077e-05
 Reference value :  3.95109e-05
 Reference value :  3.95296e-05
 Reference value :  3.97501e-05
 Reference value :  3.97502e-05
 Reference value :  3.97503e-05
 Reference value :  3.97507e-05
 Reference value :  3.97514e-05
 Reference value :  3.97530e-05
 Reference value :  3.97540e-05
 Reference value :  3.97558e-05
 Reference value :  3.97636e-05
 Reference value :  3.98564e-05
 Reference value :  4.00000e-05
 Reference value :  4.00001e-05
 Reference value :  4.00002e-05
 Reference value :  4.00005e-05
 Reference value :  4.00012e-05
 Reference value :  4.00020e-05
 Reference value :  4.00029e-05
 Reference value :  4.00045e-05
 Reference value :  4.00063e-05
 Reference value :  4.00112e-05
 Reference value :  4.00132e-05
 Reference value :  4.00152e-05
 Reference value :  4.00191e-05
 Reference value :  4.00278e-05
 Reference value :  4.00388e-05
 Reference value :  4.00428e-05
 Reference value :  4.00526e-05
 Reference value :  4.00721e-05
 Reference value :  4.01080e-05
 Reference value :  4.02294e-05
 Reference value :  4.02501e-05
 Reference value :  4.02502e-05
 Reference value :  4.02503e-05
 Reference value :  4.02510e-05
 Reference value :  4.02519e-05
 Reference value :  4.02534e-05
 Reference value :  4.02553e-05
 Reference value :  4.02588e-05
 Reference value :  4.02857e-05
 Reference value :  4.05000e-05
 Reference value :  4.05001e-05
 Reference value :  4.05003e-05
 Reference value :  4.05008e-05
 Reference value :  4.05015e-05
 Reference value :  4.05023e-05
 Reference value :  4.05033e-05
 Reference value :  4.05054e-05
 Reference value :  4.05075e-05
 Reference value :  4.05103e-05
 Reference value :  4.05221e-05
 Reference value :  4.06425e-05
 Reference value :  4.07501e-05
 Reference value :  4.07502e-05
 Reference value :  4.07503e-05
 Reference value :  4.07507e-05
 Reference value :  4.07514e-05
 Reference value :  4.07530e-05
 Reference value :  4.07534e-05
 Reference value :  4.07545e-05
 Reference value :  4.07558e-05
 Reference value :  4.07575e-05
 Reference value :  4.07596e-05
 Reference value :  4.07748e-05
 Reference value :  4.08793e-05
 Reference value :  4.10000e-05
 Reference value :  4.10001e-05
 Reference value :  4.10002e-05
 Reference value :  4.10005e-05
 Reference value :  4.10012e-05
 Reference value :  4.10020e-05
 Reference value :  4.10029e-05
 Reference value :  4.10039e-05
 Reference value :  4.10048e-05
 Reference value :  4.10066e-05
 Reference value :  4.10075e-05
 Reference value :  4.10093e-05
 Reference value :  4.10112e-05
 Reference value :  4.10126e-05
 Reference value :  4.10153e-05
 Reference value :  4.10193e-05
 Reference value :  4.10277e-05
 Reference value :  4.10441e-05
 Reference value :  4.10567e-05
 Reference value :  4.10648e-05
 Reference value :  4.10976e-05
 Reference value :  4.11332e-05
 Reference value :  4.12501e-05
 Reference value :  4.12501e-05
 Reference value :  4.12502e-05
 Reference value :  4.12503e-05
 Reference value :  4.12510e-05
 Reference value :  4.12519e-05
 Reference value :  4.12530e-05
 Reference value :  4.12534e-05
 Reference value :  4.12546e-05
 Reference value :  4.12574e-05
 Reference value :  4.12652e-05
 Reference value :  4.13723e-05
 Reference value :  4.15000e-05
 Reference value :  4.15002e-05
 Reference value :  4.15008e-05
 Reference value :  4.15020e-05
 Reference value :  4.15029e-05
 Reference value :  4.15040e-05
 Reference value :  4.15055e-05
 Reference value :  4.15062e-05
 Reference value :  4.15077e-05
 Reference value :  4.15125e-05
 Reference value :  4.15819e-05
 Reference value :  4.17501e-05
 Reference value :  4.17502e-05
 Reference value :  4.17504e-05
 Reference value :  4.17514e-05
 Reference value :  4.17530e-05
 Reference value :  4.17540e-05
 Reference value :  4.17558e-05
 Reference value :  4.17698e-05
 Reference value :  4.19558e-05
 Reference value :  4.20001e-05
 Reference value :  4.20002e-05
 Reference value :  4.20008e-05
 Reference value :  4.20016e-05
 Reference value :  4.20029e-05
 Reference value :  4.20050e-05
 Reference value :  4.20072e-05
 Reference value :  4.20098e-05
 Reference value :  4.21207e-05
 Reference value :  4.22502e-05
 Reference value :  4.22503e-05
 Reference value :  4.22507e-05
 Reference value :  4.22514e-05
 Reference value :  4.22530e-05
 Reference value :  4.22553e-05
 Reference value :  4.22592e-05
 Reference value :  4.23821e-05
 Reference value :  4.25000e-05
 Reference value :  4.25000e-05
 Reference value :  4.25001e-05
 Reference value :  4.25001e-05
 Reference value :  4.25004e-05
 Reference value :  4.25016e-05
 Reference value :  4.25024e-05
 Reference value :  4.25029e-05
 Reference value :  4.25040e-05
 Reference value :  4.25045e-05
 Reference value :  4.25055e-05
 Reference value :  4.25090e-05
 Reference value :  4.25224e-05
 Reference value :  4.25262e-05
 Reference value :  4.25291e-05
 Reference value :  4.25317e-05
 Reference value :  4.25358e-05
 Reference value :  4.25417e-05
 Reference value :  4.25515e-05
 Reference value :  4.25784e-05
 Reference value :  4.27501e-05
 Reference value :  4.27502e-05
 Reference value :  4.27503e-05
 Reference value :  4.27510e-05
 Reference value :  4.27519e-05
 Reference value :  4.27530e-05
 Reference value :  4.27540e-05
 Reference value :  4.27559e-05
 Reference value :  4.27647e-05
 Reference value :  4.28644e-05
 Reference value :  4.30000e-05
 Reference value :  4.30001e-05
 Reference value :  4.30003e-05
 Reference value :  4.30012e-05
 Reference value :  4.30020e-05
 Reference value :  4.30029e-05
 Reference value :  4.30040e-05
 Reference value :  4.30065e-05
 Reference value :  4.30090e-05
 Reference value :  4.30115e-05
 Reference value :  4.30141e-05
 Reference value :  4.30180e-05
 Reference value :  4.30361e-05
 Reference value :  4.31383e-05
 Reference value :  4.32501e-05
 Reference value :  4.32502e-05
 Reference value :  4.32504e-05
 Reference value :  4.32514e-05
 Reference value :  4.32530e-05
 Reference value :  4.32534e-05
 Reference value :  4.32545e-05
 Reference value :  4.32558e-05
 Reference value :  4.32635e-05
 Reference value :  4.33070e-05
 Reference value :  4.35007e-05
 Reference value :  4.35022e-05
 Reference value :  4.35030e-05
 Reference value :  4.35044e-05
 Reference value :  4.35056e-05
 Reference value :  4.35094e-05
 Reference value :  4.35121e-05
 Reference value :  4.35139e-05
 Reference value :  4.35157e-05
 Reference value :  4.35189e-05
 Reference value :  4.35444e-05
 Reference value :  4.36395e-05
 Reference value :  4.36797e-05
 Reference value :  4.37018e-05
 Reference value :  4.37245e-05
 Reference value :  4.37501e-05
 Reference value :  4.37502e-05
 Reference value :  4.37504e-05
 Reference value :  4.37514e-05
 Reference value :  4.37530e-05
 Reference value :  4.37539e-05
 Reference value :  4.37574e-05
 Reference value :  4.37714e-05
 Reference value :  4.38641e-05
 Reference value :  4.40000e-05
 Reference value :  4.40000e-05
 Reference value :  4.40001e-05
 Reference value :  4.40001e-05
 Reference value :  4.40002e-05
 Reference value :  4.40005e-05
 Reference value :  4.40008e-05
 Reference value :  4.40015e-05
 Reference value :  4.40028e-05
 Reference value :  4.40046e-05
 Reference value :  4.40060e-05
 Reference value :  4.40075e-05
 Reference value :  4.40092e-05
 Reference value :  4.40114e-05
 Reference value :  4.40316e-05
 Reference value :  4.42501e-05
 Reference value :  4.42502e-05
 Reference value :  4.42503e-05
 Reference value :  4.42510e-05
 Reference value :  4.42519e-05
 Reference value :  4.42530e-05
 Reference value :  4.42534e-05
 Reference value :  4.42545e-05
 Reference value :  4.42558e-05
 Reference value :  4.42575e-05
 Reference value :  4.42596e-05
 Reference value :  4.42673e-05
 Reference value :  4.43191e-05
 Reference value :  4.45000e-05
 Reference value :  4.45000e-05
 Reference value :  4.45001e-05
 Reference value :  4.45002e-05
 Reference value :  4.45008e-05
 Reference value :  4.45016e-05
 Reference value :  4.45024e-05
 Reference value :  4.45034e-05
 Reference value :  4.45048e-05
 Reference value :  4.45066e-05
 Reference value :  4.45084e-05
 Reference value :  4.45102e-05
 Reference value :  4.45119e-05
 Reference value :  4.45145e-05
 Reference value :  4.45166e-05
 Reference value :  4.45335e-05
 Reference value :  4.45559e-05
 Reference value :  4.45695e-05
 Reference value :  4.45837e-05
 Reference value :  4.47501e-05
 Reference value :  4.47502e-05
 Reference value :  4.47507e-05
 Reference value :  4.47519e-05
 Reference value :  4.47535e-05
 Reference value :  4.47546e-05
 Reference value :  4.47589e-05
 Reference value :  4.47867e-05
 Reference value :  4.50000e-05
 Reference value :  4.50001e-05
 Reference value :  4.50001e-05
 Reference value :  4.50003e-05
 Reference value :  4.50008e-05
 Reference value :  4.50016e-05
 Reference value :  4.50024e-05
 Reference value :  4.50034e-05
 Reference value :  4.50047e-05
 Reference value :  4.50062e-05
 Reference value :  4.50077e-05
 Reference value :  4.50096e-05
 Reference value :  4.50155e-05
 Reference value :  4.50829e-05
 Reference value :  4.52501e-05
 Reference value :  4.52502e-05
 Reference value :  4.52503e-05
 Reference value :  4.52510e-05
 Reference value :  4.52519e-05
 Reference value :  4.52534e-05
 Reference value :  4.52545e-05
 Reference value :  4.52558e-05
 Reference value :  4.52603e-05
 Reference value :  4.52698e-05
 Reference value :  4.53566e-05
 Reference value :  4.55000e-05
 Reference value :  4.55001e-05
 Reference value :  4.55002e-05
 Reference value :  4.55005e-05
[...]
 Reference value :  1.66512e-04
 Reference value :  1.66514e-04
 Reference value :  1.66515e-04
 Reference value :  1.66517e-04
 Reference value :  1.66521e-04
 Reference value :  1.66528e-04
 Reference value :  1.66537e-04
 Reference value :  1.66540e-04
 Reference value :  1.66548e-04
 Reference value :  1.66558e-04
 Reference value :  1.66570e-04
 Reference value :  1.66608e-04
 Reference value :  1.66703e-04
 Reference value :  1.66750e-04
 Reference value :  1.66750e-04
 Reference value :  1.66750e-04
 Reference value :  1.66750e-04
 Reference value :  1.66751e-04
 Reference value :  1.66752e-04
 Reference value :  1.66753e-04
 Reference value :  1.66755e-04
 Reference value :  1.66756e-04
 Reference value :  1.66761e-04
 Reference value :  1.66813e-04
 Reference value :  1.67000e-04
 Reference value :  1.67000e-04
 Reference value :  1.67000e-04
 Reference value :  1.67000e-04
 Reference value :  1.67001e-04
 Reference value :  1.67002e-04
 Reference value :  1.67003e-04
 Reference value :  1.67004e-04
 Reference value :  1.67005e-04
 Reference value :  1.67006e-04
 Reference value :  1.67007e-04
 Reference value :  1.67010e-04
 Reference value :  1.67022e-04
 Reference value :  1.67143e-04
 Reference value :  1.67250e-04
 Reference value :  1.67250e-04
 Reference value :  1.67250e-04
 Reference value :  1.67251e-04
 Reference value :  1.67252e-04
 Reference value :  1.67253e-04
 Reference value :  1.67254e-04
 Reference value :  1.67255e-04
 Reference value :  1.67257e-04
 Reference value :  1.67260e-04
 Reference value :  1.67267e-04
 Reference value :  1.67379e-04
 Reference value :  1.67500e-04
 Reference value :  1.67500e-04
 Reference value :  1.67500e-04
 Reference value :  1.67501e-04
 Reference value :  1.67502e-04
 Reference value :  1.67502e-04
 Reference value :  1.67503e-04
 Reference value :  1.67504e-04
 Reference value :  1.67505e-04
 Reference value :  1.67508e-04
 Reference value :  1.67509e-04
 Reference value :  1.67510e-04
 Reference value :  1.67512e-04
 Reference value :  1.67513e-04
 Reference value :  1.67516e-04
 Reference value :  1.67520e-04
 Reference value :  1.67540e-04
 Reference value :  1.67593e-04
 Reference value :  1.67633e-04
 Reference value :  1.67750e-04
 Reference value :  1.67750e-04
 Reference value :  1.67750e-04
 Reference value :  1.67750e-04
 Reference value :  1.67751e-04
 Reference value :  1.67752e-04
 Reference value :  1.67753e-04
 Reference value :  1.67755e-04
 Reference value :  1.67759e-04
 Reference value :  1.67787e-04
 Reference value :  1.68000e-04
 Reference value :  1.68000e-04
 Reference value :  1.68000e-04
 Reference value :  1.68000e-04
 Reference value :  1.68001e-04
 Reference value :  1.68002e-04
 Reference value :  1.68003e-04
 Reference value :  1.68005e-04
 Reference value :  1.68006e-04
 Reference value :  1.68007e-04
 Reference value :  1.68010e-04
 Reference value :  1.68017e-04
 Reference value :  1.68047e-04
 Reference value :  1.68250e-04
 Reference value :  1.68250e-04
 Reference value :  1.68250e-04
 Reference value :  1.68250e-04
 Reference value :  1.68251e-04
 Reference value :  1.68252e-04
 Reference value :  1.68253e-04
 Reference value :  1.68253e-04
 Reference value :  1.68254e-04
 Reference value :  1.68256e-04
 Reference value :  1.68257e-04
 Reference value :  1.68260e-04
 Reference value :  1.68267e-04
 Reference value :  1.68319e-04
 Reference value :  1.68500e-04
 Reference value :  1.68500e-04
 Reference value :  1.68500e-04
 Reference value :  1.68501e-04
 Reference value :  1.68502e-04
 Reference value :  1.68502e-04
 Reference value :  1.68503e-04
 Reference value :  1.68504e-04
 Reference value :  1.68505e-04
 Reference value :  1.68508e-04
 Reference value :  1.68510e-04
 Reference value :  1.68512e-04
 Reference value :  1.68514e-04
 Reference value :  1.68517e-04
 Reference value :  1.68525e-04
 Reference value :  1.68547e-04
 Reference value :  1.68591e-04
 Reference value :  1.68615e-04
 Reference value :  1.68635e-04
 Reference value :  1.68677e-04
 Reference value :  1.68750e-04
 Reference value :  1.68750e-04
 Reference value :  1.68750e-04
 Reference value :  1.68750e-04
 Reference value :  1.68751e-04
 Reference value :  1.68751e-04
 Reference value :  1.68752e-04
 Reference value :  1.68753e-04
 Reference value :  1.68755e-04
 Reference value :  1.68758e-04
 Reference value :  1.68766e-04
 Reference value :  1.68882e-04
 Reference value :  1.69000e-04
 Reference value :  1.69000e-04
 Reference value :  1.69000e-04
 Reference value :  1.69001e-04
 Reference value :  1.69001e-04
 Reference value :  1.69002e-04
 Reference value :  1.69003e-04
 Reference value :  1.69004e-04
 Reference value :  1.69006e-04
 Reference value :  1.69006e-04
 Reference value :  1.69008e-04
 Reference value :  1.69010e-04
 Reference value :  1.69012e-04
 Reference value :  1.69029e-04
 Reference value :  1.69141e-04
 Reference value :  1.69250e-04
 Reference value :  1.69250e-04
 Reference value :  1.69250e-04
 Reference value :  1.69250e-04
 Reference value :  1.69251e-04
 Reference value :  1.69251e-04
 Reference value :  1.69252e-04
 Reference value :  1.69253e-04
 Reference value :  1.69254e-04
 Reference value :  1.69256e-04
 Reference value :  1.69264e-04
 Reference value :  1.69356e-04
 Reference value :  1.69500e-04
 Reference value :  1.69500e-04
 Reference value :  1.69500e-04
 Reference value :  1.69501e-04
 Reference value :  1.69502e-04
 Reference value :  1.69503e-04
 Reference value :  1.69505e-04
 Reference value :  1.69506e-04
 Reference value :  1.69507e-04
 Reference value :  1.69509e-04
 Reference value :  1.69523e-04
 Reference value :  1.69731e-04
 Reference value :  1.69750e-04
 Reference value :  1.69750e-04
 Reference value :  1.69750e-04
 Reference value :  1.69751e-04
 Reference value :  1.69751e-04
 Reference value :  1.69752e-04
 Reference value :  1.69754e-04
 Reference value :  1.69755e-04
 Reference value :  1.69758e-04
 Reference value :  1.69766e-04
 Reference value :  1.69822e-04
 Reference value :  1.70000e-04
 Reference value :  1.70000e-04
 Reference value :  1.70000e-04
 Reference value :  1.70000e-04
 Reference value :  1.70000e-04
 Reference value :  1.70000e-04
 Reference value :  1.70000e-04
 Reference value :  1.70000e-04
 Reference value :  1.70001e-04
 Reference value :  1.70002e-04
 Reference value :  1.70003e-04
 Reference value :  1.70004e-04
 Reference value :  1.70005e-04
 Reference value :  1.70007e-04
 Reference value :  1.70022e-04
 Reference value :  1.70026e-04
 Reference value :  1.70029e-04
 Reference value :  1.70032e-04
 Reference value :  1.70038e-04
 Reference value :  1.70048e-04
 Reference value :  1.70076e-04
 Reference value :  1.70158e-04
 Reference value :  1.70250e-04
 Reference value :  1.70250e-04
 Reference value :  1.70250e-04
 Reference value :  1.70251e-04
 Reference value :  1.70251e-04
 Reference value :  1.70252e-04
 Reference value :  1.70253e-04
 Reference value :  1.70255e-04
 Reference value :  1.70256e-04
 Reference value :  1.70259e-04
 Reference value :  1.70265e-04
 Reference value :  1.70285e-04
 Reference value :  1.70365e-04
 Reference value :  1.70500e-04
 Reference value :  1.70500e-04
 Reference value :  1.70500e-04
 Reference value :  1.70500e-04
 Reference value :  1.70500e-04
 Reference value :  1.70501e-04
 Reference value :  1.70501e-04
 Reference value :  1.70502e-04
 Reference value :  1.70503e-04
 Reference value :  1.70504e-04
 Reference value :  1.70505e-04
 Reference value :  1.70507e-04
 Reference value :  1.70509e-04
 Reference value :  1.70511e-04
 Reference value :  1.70513e-04
 Reference value :  1.70516e-04
 Reference value :  1.70534e-04
 Reference value :  1.70750e-04
 Reference value :  1.70750e-04
 Reference value :  1.70750e-04
 Reference value :  1.70751e-04
 Reference value :  1.70751e-04
 Reference value :  1.70753e-04
 Reference value :  1.70754e-04
 Reference value :  1.70755e-04
 Reference value :  1.70757e-04
 Reference value :  1.70770e-04
 Reference value :  1.70956e-04
 Reference value :  1.71000e-04
 Reference value :  1.71000e-04
 Reference value :  1.71001e-04
 Reference value :  1.71002e-04
 Reference value :  1.71003e-04
 Reference value :  1.71005e-04
 Reference value :  1.71008e-04
 Reference value :  1.71011e-04
 Reference value :  1.71012e-04
 Reference value :  1.71014e-04
 Reference value :  1.71016e-04
 Reference value :  1.71019e-04
 Reference value :  1.71029e-04
 Reference value :  1.71075e-04
 Reference value :  1.71171e-04
 Reference value :  1.71228e-04
 Reference value :  1.71250e-04
 Reference value :  1.71250e-04
 Reference value :  1.71250e-04
 Reference value :  1.71250e-04
 Reference value :  1.71251e-04
 Reference value :  1.71252e-04
 Reference value :  1.71253e-04
 Reference value :  1.71255e-04
 Reference value :  1.71257e-04
 Reference value :  1.71271e-04
 Reference value :  1.71365e-04
 Reference value :  1.71500e-04
 Reference value :  1.71500e-04
 Reference value :  1.71500e-04
 Reference value :  1.71500e-04
 Reference value :  1.71501e-04
 Reference value :  1.71501e-04
 Reference value :  1.71502e-04
 Reference value :  1.71503e-04
 Reference value :  1.71503e-04
 Reference value :  1.71505e-04
 Reference value :  1.71505e-04
 Reference value :  1.71506e-04
 Reference value :  1.71507e-04
 Reference value :  1.71509e-04
 Reference value :  1.71510e-04
 Reference value :  1.71517e-04
 Reference value :  1.71548e-04
 Reference value :  1.71750e-04
 Reference value :  1.71750e-04
 Reference value :  1.71750e-04
 Reference value :  1.71750e-04
 Reference value :  1.71750e-04
 Reference value :  1.71751e-04
 Reference value :  1.71751e-04
 Reference value :  1.71752e-04
 Reference value :  1.71753e-04
 Reference value :  1.71754e-04
 Reference value :  1.71756e-04
 Reference value :  1.71758e-04
 Reference value :  1.71760e-04
 Reference value :  1.71767e-04
 Reference value :  1.71820e-04
 Reference value :  1.72000e-04
 Reference value :  1.72000e-04
 Reference value :  1.72000e-04
 Reference value :  1.72001e-04
 Reference value :  1.72002e-04
 Reference value :  1.72003e-04
 Reference value :  1.72005e-04
 Reference value :  1.72007e-04
 Reference value :  1.72008e-04
 Reference value :  1.72010e-04
 Reference value :  1.72012e-04
 Reference value :  1.72015e-04
 Reference value :  1.72017e-04
 Reference value :  1.72025e-04
 Reference value :  1.72041e-04
 Reference value :  1.72048e-04
 Reference value :  1.72052e-04
 Reference value :  1.72065e-04
 Reference value :  1.72089e-04
 Reference value :  1.72159e-04
 Reference value :  1.72250e-04
 Reference value :  1.72250e-04
 Reference value :  1.72250e-04
 Reference value :  1.72251e-04
 Reference value :  1.72252e-04
 Reference value :  1.72253e-04
 Reference value :  1.72254e-04
 Reference value :  1.72256e-04
 Reference value :  1.72265e-04
 Reference value :  1.72372e-04
 Reference value :  1.72500e-04
 Reference value :  1.72500e-04
 Reference value :  1.72500e-04
 Reference value :  1.72501e-04
 Reference value :  1.72502e-04
 Reference value :  1.72503e-04
 Reference value :  1.72506e-04
 Reference value :  1.72507e-04
 Reference value :  1.72510e-04
 Reference value :  1.72530e-04
 Reference value :  1.72750e-04
 Reference value :  1.72750e-04
 Reference value :  1.72750e-04
 Reference value :  1.72751e-04
 Reference value :  1.72753e-04
 Reference value :  1.72754e-04
 Reference value :  1.72755e-04
 Reference value :  1.72758e-04
 Reference value :  1.72782e-04
 Reference value :  1.73000e-04
 Reference value :  1.73000e-04
 Reference value :  1.73000e-04
 Reference value :  1.73001e-04
 Reference value :  1.73002e-04
 Reference value :  1.73003e-04
 Reference value :  1.73005e-04
 Reference value :  1.73007e-04
 Reference value :  1.73011e-04
 Reference value :  1.73013e-04
 Reference value :  1.73015e-04
 Reference value :  1.73019e-04
 Reference value :  1.73029e-04
 Reference value :  1.73072e-04
 Reference value :  1.73161e-04
 Reference value :  1.73250e-04
 Reference value :  1.73250e-04
 Reference value :  1.73250e-04
 Reference value :  1.73251e-04
 Reference value :  1.73251e-04
 Reference value :  1.73252e-04
 Reference value :  1.73253e-04
 Reference value :  1.73253e-04
 Reference value :  1.73255e-04
 Reference value :  1.73256e-04
 Reference value :  1.73262e-04
 Reference value :  1.73315e-04
 Reference value :  1.73500e-04
 Reference value :  1.73500e-04
 Reference value :  1.73501e-04
 Reference value :  1.73502e-04
 Reference value :  1.73503e-04
 Reference value :  1.73505e-04
 Reference value :  1.73506e-04
 Reference value :  1.73508e-04
 Reference value :  1.73512e-04
 Reference value :  1.73582e-04
 Reference value :  1.73750e-04
 Reference value :  1.73750e-04
 Reference value :  1.73751e-04
 Reference value :  1.73752e-04
 Reference value :  1.73753e-04
 Reference value :  1.73755e-04
 Reference value :  1.73760e-04
 Reference value :  1.73857e-04
 Reference value :  1.74000e-04
 Reference value :  1.74000e-04
 Reference value :  1.74001e-04
 Reference value :  1.74003e-04
 Reference value :  1.74005e-04
 Reference value :  1.74008e-04
 Reference value :  1.74011e-04
 Reference value :  1.74014e-04
 Reference value :  1.74019e-04
 Reference value :  1.74039e-04
 Reference value :  1.74056e-04
 Reference value :  1.74080e-04
 Reference value :  1.74224e-04
 Reference value :  1.74250e-04
 Reference value :  1.74250e-04
 Reference value :  1.74251e-04
 Reference value :  1.74253e-04
 Reference value :  1.74255e-04
 Reference value :  1.74259e-04
 Reference value :  1.74264e-04
 Reference value :  1.74292e-04
 Reference value :  1.74379e-04
 Reference value :  1.74500e-04
 Reference value :  1.74500e-04
 Reference value :  1.74501e-04
 Reference value :  1.74502e-04
 Reference value :  1.74504e-04
 Reference value :  1.74506e-04
 Reference value :  1.74509e-04
 Reference value :  1.74520e-04
 Reference value :  1.74750e-04
 Reference value :  1.74750e-04
 Reference value :  1.74750e-04
 Reference value :  1.74751e-04
 Reference value :  1.74753e-04
 Reference value :  1.74754e-04
 Reference value :  1.74755e-04
 Reference value :  1.74757e-04
 Reference value :  1.74770e-04
 Reference value :  1.74957e-04
 Reference value :  1.75000e-04
 Reference value :  1.75000e-04
 Reference value :  1.75001e-04
 Reference value :  1.75002e-04
 Reference value :  1.75003e-04
 Reference value :  1.75004e-04
 Reference value :  1.75006e-04
 Reference value :  1.75008e-04
 Reference value :  1.75011e-04
 Reference value :  1.75012e-04
 Reference value :  1.75014e-04
 Reference value :  1.75016e-04
 Reference value :  1.75024e-04
 Reference value :  1.75038e-04
 Reference value :  1.75045e-04
 Reference value :  1.75061e-04
 Reference value :  1.75099e-04
 Reference value :  1.75250e-04
 Reference value :  1.75250e-04
 Reference value :  1.75250e-04
 Reference value :  1.75250e-04
 Reference value :  1.75251e-04
 Reference value :  1.75252e-04
 Reference value :  1.75253e-04
 Reference value :  1.75254e-04
 Reference value :  1.75256e-04
 Reference value :  1.75261e-04
 Reference value :  1.75286e-04
 Reference value :  1.75480e-04
 Reference value :  1.75500e-04
 Reference value :  1.75500e-04
 Reference value :  1.75500e-04
 Reference value :  1.75501e-04
 Reference value :  1.75502e-04
 Reference value :  1.75503e-04
 Reference value :  1.75505e-04
 Reference value :  1.75506e-04
 Reference value :  1.75507e-04
 Reference value :  1.75510e-04
 Reference value :  1.75532e-04
 Reference value :  1.75750e-04
 Reference value :  1.75750e-04
 Reference value :  1.75751e-04
 Reference value :  1.75752e-04
 Reference value :  1.75753e-04
 Reference value :  1.75754e-04
 Reference value :  1.75756e-04
 Reference value :  1.75758e-04
 Reference value :  1.75764e-04
 Reference value :  1.75790e-04
 Reference value :  1.75999e-04
 Reference value :  1.76000e-04
 Reference value :  1.76000e-04
 Reference value :  1.76001e-04
 Reference value :  1.76002e-04
 Reference value :  1.76002e-04
 Reference value :  1.76003e-04
 Reference value :  1.76004e-04
 Reference value :  1.76005e-04
 Reference value :  1.76008e-04
 Reference value :  1.76009e-04
 Reference value :  1.76010e-04
 Reference value :  1.76012e-04
 Reference value :  1.76013e-04
 Reference value :  1.76017e-04
 Reference value :  1.76024e-04
 Reference value :  1.76037e-04
 Reference value :  1.76052e-04
 Reference value :  1.76133e-04
 Reference value :  1.76165e-04
 Reference value :  1.76249e-04
 Reference value :  1.76250e-04
 Reference value :  1.76250e-04
 Reference value :  1.76250e-04
 Reference value :  1.76251e-04
 Reference value :  1.76252e-04
 Reference value :  1.76253e-04
 Reference value :  1.76255e-04
 Reference value :  1.76262e-04
 Reference value :  1.76317e-04
 Reference value :  1.76500e-04
 Reference value :  1.76500e-04
 Reference value :  1.76500e-04
 Reference value :  1.76501e-04
 Reference value :  1.76502e-04
 Reference value :  1.76503e-04
 Reference value :  1.76504e-04
 Reference value :  1.76506e-04
 Reference value :  1.76507e-04
 Reference value :  1.76510e-04
 Reference value :  1.76522e-04
 Reference value :  1.76642e-04
 Reference value :  1.76750e-04
 Reference value :  1.76750e-04
 Reference value :  1.76751e-04
 Reference value :  1.76752e-04
 Reference value :  1.76753e-04
 Reference value :  1.76754e-04
 Reference value :  1.76755e-04
 Reference value :  1.76757e-04
 Reference value :  1.76760e-04
 Reference value :  1.76775e-04
 Reference value :  1.76878e-04
 Reference value :  1.77000e-04
 Reference value :  1.77000e-04
 Reference value :  1.77000e-04
 Reference value :  1.77001e-04
 Reference value :  1.77001e-04
 Reference value :  1.77002e-04
 Reference value :  1.77003e-04
 Reference value :  1.77004e-04
 Reference value :  1.77005e-04
 Reference value :  1.77006e-04
 Reference value :  1.77008e-04
 Reference value :  1.77009e-04
 Reference value :  1.77010e-04
 Reference value :  1.77012e-04
 Reference value :  1.77014e-04
 Reference value :  1.77015e-04
 Reference value :  1.77017e-04
 Reference value :  1.77021e-04
 Reference value :  1.77027e-04
 Reference value :  1.77043e-04
 Reference value :  1.77054e-04
 Reference value :  1.77068e-04
 Reference value :  1.77091e-04
 Reference value :  1.77135e-04
 Reference value :  1.77250e-04
 Reference value :  1.77250e-04
 Reference value :  1.77250e-04
 Reference value :  1.77250e-04
 Reference value :  1.77251e-04
 Reference value :  1.77251e-04
 Reference value :  1.77252e-04
 Reference value :  1.77253e-04
 Reference value :  1.77255e-04
 Reference value :  1.77257e-04
 Reference value :  1.77265e-04
 Reference value :  1.77315e-04
 Reference value :  1.77500e-04
 Reference value :  1.77500e-04
 Reference value :  1.77500e-04
 Reference value :  1.77500e-04
 Reference value :  1.77501e-04
 Reference value :  1.77501e-04
 Reference value :  1.77502e-04
 Reference value :  1.77503e-04
 Reference value :  1.77504e-04
 Reference value :  1.77506e-04
 Reference value :  1.77506e-04
 Reference value :  1.77508e-04
 Reference value :  1.77510e-04
 Reference value :  1.77529e-04
 Reference value :  1.77750e-04
 Reference value :  1.77750e-04
 Reference value :  1.77750e-04
 Reference value :  1.77751e-04
 Reference value :  1.77751e-04
 Reference value :  1.77753e-04
 Reference value :  1.77753e-04
 Reference value :  1.77754e-04
 Reference value :  1.77757e-04
 Reference value :  1.77770e-04
 Reference value :  1.78000e-04
 Reference value :  1.78000e-04
 Reference value :  1.78000e-04
 Reference value :  1.78002e-04
 Reference value :  1.78003e-04
 Reference value :  1.78005e-04
 Reference value :  1.78006e-04
 Reference value :  1.78009e-04
 Reference value :  1.78037e-04
 Reference value :  1.78250e-04
 Reference value :  1.78250e-04
 Reference value :  1.78251e-04
 Reference value :  1.78252e-04
 Reference value :  1.78254e-04
 Reference value :  1.78256e-04
 Reference value :  1.78275e-04
No. of Data Rows : 25930
ngspice-44 done
